 Abaqus/Standard 2020                  DATE 05-Jan-2023 TIME 16:46:43
 SUMMARY OF JOB INFORMATION:
 STEP  INC ATT SEVERE EQUIL TOTAL  TOTAL      STEP       INC OF       DOF    IF
               DISCON ITERS ITERS  TIME/    TIME/LPF    TIME/LPF    MONITOR RIKS
               ITERS               FREQ
   1     1   1U    0     6     6  0.00       0.00       0.001000  
   1     1   2     0     2     2  0.000250   0.000250   0.0002500 
   1     2   1     0     2     2  0.000500   0.000500   0.0002500 
   1     3   1     0     3     3  0.000875   0.000875   0.0003750 
   1     4   1     0     3     3  0.00144    0.00144    0.0005625 
   1     5   1U    0     6     6  0.00144    0.00144    0.0008438 
   1     5   2     0     3     3  0.00165    0.00165    0.0002109 
   1     6   1     0     2     2  0.00196    0.00196    0.0003164 
   1     7   1     0     3     3  0.00244    0.00244    0.0004746 
   1     8   1     0     4     4  0.00315    0.00315    0.0007119 
   1     9   1U    0     6     6  0.00315    0.00315    0.001000  
   1     9   2     0     1     1  0.00340    0.00340    0.0002500 
   1    10   1     0     1     1  0.00378    0.00378    0.0003750 
   1    11   1     0     2     2  0.00434    0.00434    0.0005625 
   1    12   1     0     4     4  0.00518    0.00518    0.0008438 
   1    13   1     0     3     3  0.00618    0.00618    0.001000  
   1    14   1     0     3     3  0.00718    0.00718    0.001000  
   1    15   1     0     2     2  0.00818    0.00818    0.001000  
   1    16   1     0     1     1  0.00918    0.00918    0.001000  
   1    17   1     0     1     1  0.0102     0.0102     0.001000  
   1    18   1     0     2     2  0.0112     0.0112     0.001000  
   1    19   1     0     2     2  0.0122     0.0122     0.001000  
   1    20   1     0     2     2  0.0132     0.0132     0.001000  
   1    21   1     0     2     2  0.0142     0.0142     0.001000  
   1    22   1     0     2     2  0.0152     0.0152     0.001000  
   1    23   1     0     2     2  0.0162     0.0162     0.001000  
   1    24   1     0     2     2  0.0172     0.0172     0.001000  
   1    25   1     0     2     2  0.0182     0.0182     0.001000  
   1    26   1     0     2     2  0.0192     0.0192     0.001000  
   1    27   1     0     2     2  0.0202     0.0202     0.001000  
   1    28   1     0     1     1  0.0212     0.0212     0.001000  
   1    29   1     0     1     1  0.0222     0.0222     0.001000  
   1    30   1     0     1     1  0.0232     0.0232     0.001000  
   1    31   1     0     1     1  0.0242     0.0242     0.001000  
   1    32   1     0     1     1  0.0252     0.0252     0.001000  
   1    33   1     0     1     1  0.0262     0.0262     0.001000  
   1    34   1     0     1     1  0.0272     0.0272     0.001000  
   1    35   1     0     1     1  0.0282     0.0282     0.001000  
   1    36   1     0     1     1  0.0292     0.0292     0.001000  
   1    37   1     0     1     1  0.0302     0.0302     0.001000  
   1    38   1     0     1     1  0.0312     0.0312     0.001000  
   1    39   1     0     1     1  0.0322     0.0322     0.001000  
   1    40   1     0     1     1  0.0332     0.0332     0.001000  
   1    41   1     0     1     1  0.0342     0.0342     0.001000  
   1    42   1     0     1     1  0.0352     0.0352     0.001000  
   1    43   1     0     1     1  0.0362     0.0362     0.001000  
   1    44   1     0     1     1  0.0372     0.0372     0.001000  
   1    45   1     0     1     1  0.0382     0.0382     0.001000  
   1    46   1     0     1     1  0.0392     0.0392     0.001000  
   1    47   1     0     1     1  0.0402     0.0402     0.001000  
   1    48   1     0     1     1  0.0412     0.0412     0.001000  
   1    49   1     0     1     1  0.0422     0.0422     0.001000  
   1    50   1     0     1     1  0.0432     0.0432     0.001000  
   1    51   1     0     1     1  0.0442     0.0442     0.001000  
   1    52   1     0     1     1  0.0452     0.0452     0.001000  
   1    53   1     0     1     1  0.0462     0.0462     0.001000  
   1    54   1     0     1     1  0.0472     0.0472     0.001000  
   1    55   1     0     1     1  0.0482     0.0482     0.001000  
   1    56   1     0     1     1  0.0492     0.0492     0.001000  
   1    57   1     0     1     1  0.0502     0.0502     0.001000  
   1    58   1     0     1     1  0.0512     0.0512     0.001000  
   1    59   1     0     1     1  0.0522     0.0522     0.001000  
   1    60   1     0     1     1  0.0532     0.0532     0.001000  
   1    61   1     0     1     1  0.0542     0.0542     0.001000  
   1    62   1     0     1     1  0.0552     0.0552     0.001000  
   1    63   1     0     1     1  0.0562     0.0562     0.001000  
   1    64   1     0     1     1  0.0572     0.0572     0.001000  
   1    65   1     0     1     1  0.0582     0.0582     0.001000  
   1    66   1     0     1     1  0.0592     0.0592     0.001000  
   1    67   1     0     1     1  0.0602     0.0602     0.001000  
   1    68   1     0     1     1  0.0612     0.0612     0.001000  
   1    69   1     0     1     1  0.0622     0.0622     0.001000  
   1    70   1     0     1     1  0.0632     0.0632     0.001000  
   1    71   1     0     1     1  0.0642     0.0642     0.001000  
   1    72   1     0     1     1  0.0652     0.0652     0.001000  
   1    73   1     0     1     1  0.0662     0.0662     0.001000  
   1    74   1     0     1     1  0.0672     0.0672     0.001000  
   1    75   1     0     1     1  0.0682     0.0682     0.001000  
   1    76   1     0     1     1  0.0692     0.0692     0.001000  
   1    77   1     0     1     1  0.0702     0.0702     0.001000  
   1    78   1     0     1     1  0.0712     0.0712     0.001000  
   1    79   1     0     1     1  0.0722     0.0722     0.001000  
   1    80   1     0     1     1  0.0732     0.0732     0.001000  
   1    81   1     0     1     1  0.0742     0.0742     0.001000  
   1    82   1     0     1     1  0.0752     0.0752     0.001000  
   1    83   1     0     1     1  0.0762     0.0762     0.001000  
   1    84   1     0     1     1  0.0772     0.0772     0.001000  
   1    85   1     0     1     1  0.0782     0.0782     0.001000  
   1    86   1     0     1     1  0.0792     0.0792     0.001000  
   1    87   1     0     1     1  0.0802     0.0802     0.001000  
   1    88   1     0     1     1  0.0812     0.0812     0.001000  
   1    89   1     0     1     1  0.0822     0.0822     0.001000  
   1    90   1     0     1     1  0.0832     0.0832     0.001000  
   1    91   1     0     1     1  0.0842     0.0842     0.001000  
   1    92   1     0     1     1  0.0852     0.0852     0.001000  
   1    93   1     0     1     1  0.0862     0.0862     0.001000  
   1    94   1     0     1     1  0.0872     0.0872     0.001000  
   1    95   1     0     1     1  0.0882     0.0882     0.001000  
   1    96   1     0     1     1  0.0892     0.0892     0.001000  
   1    97   1     0     1     1  0.0902     0.0902     0.001000  
   1    98   1     0     1     1  0.0912     0.0912     0.001000  
   1    99   1     0     1     1  0.0922     0.0922     0.001000  
   1   100   1     0     1     1  0.0932     0.0932     0.001000  
   1   101   1     0     1     1  0.0942     0.0942     0.001000  
   1   102   1     0     1     1  0.0952     0.0952     0.001000  
   1   103   1     0     1     1  0.0962     0.0962     0.001000  
   1   104   1     0     1     1  0.0972     0.0972     0.001000  
   1   105   1     0     1     1  0.0982     0.0982     0.001000  
   1   106   1     0     1     1  0.0992     0.0992     0.001000  
   1   107   1     0     1     1  0.100      0.100      0.001000  
   1   108   1     0     1     1  0.101      0.101      0.001000  
   1   109   1     0     1     1  0.102      0.102      0.001000  
   1   110   1     0     1     1  0.103      0.103      0.001000  
   1   111   1     0     1     1  0.104      0.104      0.001000  
   1   112   1     0     1     1  0.105      0.105      0.001000  
   1   113   1     0     1     1  0.106      0.106      0.001000  
   1   114   1     0     1     1  0.107      0.107      0.001000  
   1   115   1     0     1     1  0.108      0.108      0.001000  
   1   116   1     0     1     1  0.109      0.109      0.001000  
   1   117   1     0     1     1  0.110      0.110      0.001000  
   1   118   1     0     1     1  0.111      0.111      0.001000  
   1   119   1     0     1     1  0.112      0.112      0.001000  
   1   120   1     0     1     1  0.113      0.113      0.001000  
   1   121   1     0     1     1  0.114      0.114      0.001000  
   1   122   1     0     1     1  0.115      0.115      0.001000  
   1   123   1     0     2     2  0.116      0.116      0.001000  
   1   124   1     0     2     2  0.117      0.117      0.001000  
   1   125   1     0     2     2  0.118      0.118      0.001000  
   1   126   1     0     4     4  0.119      0.119      0.001000  
   1   127   1     0     4     4  0.120      0.120      0.001000  
   1   128   1     0     6     6  0.121      0.121      0.001000  
   1   129   1U    0     6     6  0.121      0.121      0.001000  
   1   129   2     0     1     1  0.121      0.121      0.0002500 
   1   130   1     0     1     1  0.122      0.122      0.0002500 
   1   131   1     0     1     1  0.122      0.122      0.0003750 
   1   132   1     0     1     1  0.123      0.123      0.0005625 
   1   133   1     0     2     2  0.123      0.123      0.0008438 
   1   134   1U    0     9     9  0.123      0.123      0.001000  
   1   134   2     0     1     1  0.124      0.124      0.0005000 
   1   135   1     0     1     1  0.125      0.125      0.0007500 
   1   136   1U    0     7     7  0.125      0.125      0.001000  
   1   136   2     0     1     1  0.125      0.125      0.0002500 
   1   137   1     0     1     1  0.125      0.125      0.0003750 
   1   138   1     0     1     1  0.126      0.126      0.0005625 
   1   139   1     0     5     5  0.127      0.127      0.0008438 
   1   140   1U    0     5     5  0.127      0.127      0.0008438 
   1   140   2     0     1     1  0.127      0.127      0.0002109 
   1   141   1     0     1     1  0.127      0.127      0.0002109 
   1   142   1     0     1     1  0.127      0.127      0.0003164 
   1   143   1     0     1     1  0.128      0.128      0.0004746 
   1   144   1     0     2     2  0.129      0.129      0.0007119 
   1   145   1U    0     6     6  0.129      0.129      0.001000  
   1   145   2     0     1     1  0.129      0.129      0.0002500 
   1   146   1     0     1     1  0.129      0.129      0.0003750 
   1   147   1     0     1     1  0.130      0.130      0.0005625 
   1   148   1     0    10    10  0.131      0.131      0.0008438 
   1   149   1U    0    10    10  0.131      0.131      0.0008438 
   1   149   2     0     3     3  0.131      0.131      0.0004219 
   1   150   1     0     2     2  0.132      0.132      0.0004219 
   1   151   1U    0     5     5  0.132      0.132      0.0006328 
   1   151   2     0     1     1  0.132      0.132      0.0001582 
   1   152   1     0     1     1  0.132      0.132      0.0002373 
   1   153   1     0     1     1  0.132      0.132      0.0003560 
   1   154   1     0     1     1  0.133      0.133      0.0005339 
   1   155   1U    0     9     9  0.133      0.133      0.0008009 
   1   155   2     0     1     1  0.133      0.133      0.0002002 
   1   156   1     0     1     1  0.133      0.133      0.0003003 
   1   157   1     0     1     1  0.134      0.134      0.0004505 
   1   158   1U    0     5     5  0.134      0.134      0.0006758 
   1   158   2     0     1     1  0.134      0.134      0.0001689 
   1   159   1     0     1     1  0.134      0.134      0.0002534 
   1   160   1     0     1     1  0.135      0.135      0.0003801 
   1   161   1     0     3     3  0.135      0.135      0.0005702 
   1   162   1U    0     6     6  0.135      0.135      0.0008553 
   1   162   2     0     1     1  0.135      0.135      0.0002138 
   1   163   1     0     1     1  0.136      0.136      0.0003207 
   1   164   1U    0     7     7  0.136      0.136      0.0004811 
   1   164   2     0     1     1  0.136      0.136      0.0001203 
   1   165   1     0     1     1  0.136      0.136      0.0001804 
   1   166   1     0     1     1  0.136      0.136      0.0002706 
   1   167   1     0     2     2  0.137      0.137      0.0004059 
   1   168   1U    0     6     6  0.137      0.137      0.0006089 
   1   168   2     0     1     1  0.137      0.137      0.0001522 
   1   169   1     0     1     1  0.137      0.137      0.0002283 
   1   170   1     0     1     1  0.137      0.137      0.0003425 
   1   171   1     0     3     3  0.138      0.138      0.0005137 
   1   172   1     0    10    10  0.139      0.139      0.0007706 
   1   173   1U    0     9     9  0.139      0.139      0.0007706 
   1   173   2     0     4     4  0.139      0.139      0.0003853 
   1   174   1U    0     4     4  0.139      0.139      0.0003853 
   1   174   2     0     1     1  0.139      0.139      9.633e-05 
   1   175   1     0     1     1  0.139      0.139      0.0001445 
   1   176   1     0     1     1  0.140      0.140      0.0002167 
   1   177   1     0     1     1  0.140      0.140      0.0003251 
   1   178   1U    0     8     8  0.140      0.140      0.0004876 
   1   178   2     0     1     1  0.140      0.140      0.0001219 
   1   179   1     0     1     1  0.140      0.140      0.0001829 
   1   180   1     0     1     1  0.140      0.140      0.0002743 
   1   181   1     0     3     3  0.141      0.141      0.0004115 
   1   182   1U    0     7     7  0.141      0.141      0.0006172 
   1   182   2     0     4     4  0.141      0.141      0.0001543 
   1   183   1U    0     4     4  0.141      0.141      0.0002314 
   1   183   2     0     3     3  0.141      0.141      5.786e-05 
   1   184   1U    0     5     5  0.141      0.141      8.679e-05 
   1   184   2     0     4     4  0.141      0.141      2.170e-05 
   1   185   1     0     3     3  0.141      0.141      3.255e-05 
   1   186   1     0     3     3  0.141      0.141      4.882e-05 
   1   187   1     0     4     4  0.141      0.141      7.323e-05 
   1   188   1U    0     6     6  0.141      0.141      0.0001098 
   1   188   2     0     4     4  0.141      0.141      2.746e-05 
   1   189   1     0     3     3  0.141      0.141      4.119e-05 
   1   190   1     0     3     3  0.141      0.141      6.179e-05 
   1   191   1     0     3     3  0.141      0.141      9.268e-05 
   1   192   1U    0     7     7  0.141      0.141      0.0001390 
   1   192   2     0     4     4  0.141      0.141      3.476e-05 
   1   193   1     0     4     4  0.142      0.142      5.213e-05 
   1   194   1U    0     4     4  0.142      0.142      7.820e-05 
   1   194   2     0     4     4  0.142      0.142      1.955e-05 
   1   195   1     0     3     3  0.142      0.142      2.933e-05 
   1   196   1     0     4     4  0.142      0.142      4.399e-05 
   1   197   1     0     3     3  0.142      0.142      6.598e-05 
   1   198   1U    0     8     8  0.142      0.142      9.897e-05 
   1   198   2     0     4     4  0.142      0.142      2.474e-05 
   1   199   1     0     4     4  0.142      0.142      3.711e-05 
   1   200   1     0     3     3  0.142      0.142      5.567e-05 
   1   201   1     0     3     3  0.142      0.142      8.351e-05 
   1   202   1U    0     7     7  0.142      0.142      0.0001253 
   1   202   2U    0     6     6  0.142      0.142      3.132e-05 
   1   202   3     0     4     4  0.142      0.142      7.829e-06 
   1   203   1     0     3     3  0.142      0.142      1.174e-05 
   1   204   1     0     3     3  0.142      0.142      1.761e-05 
   1   205   1     0     3     3  0.142      0.142      2.642e-05 
   1   206   1U    0     6     6  0.142      0.142      3.963e-05 
   1   206   2     0     3     3  0.142      0.142      9.908e-06 
   1   207   1     0     3     3  0.142      0.142      1.486e-05 
   1   208   1     0     3     3  0.142      0.142      2.229e-05 
   1   209   1     0     2     2  0.142      0.142      3.344e-05 
   1   210   1     0     3     3  0.142      0.142      5.016e-05 
   1   211   1U    0     8     8  0.142      0.142      7.524e-05 
   1   211   2     0     4     4  0.142      0.142      1.881e-05 
   1   212   1     0     4     4  0.142      0.142      2.822e-05 
   1   213   1     0     3     3  0.142      0.142      4.232e-05 
   1   214   1U    0     4     4  0.142      0.142      6.349e-05 
   1   214   2     0     4     4  0.142      0.142      1.587e-05 
   1   215   1     0     4     4  0.142      0.142      2.381e-05 
   1   216   1     0     3     3  0.142      0.142      3.571e-05 
   1   217   1U    0     4     4  0.142      0.142      5.357e-05 
   1   217   2     0     3     3  0.142      0.142      1.339e-05 
   1   218   1     0     4     4  0.142      0.142      2.009e-05 
   1   219   1     0     3     3  0.142      0.142      3.013e-05 
   1   220   1     0     4     4  0.142      0.142      4.520e-05 
   1   221   1U    0     4     4  0.142      0.142      6.779e-05 
   1   221   2     0     4     4  0.142      0.142      1.695e-05 
   1   222   1     0     3     3  0.142      0.142      2.542e-05 
   1   223   1     0     3     3  0.142      0.142      3.813e-05 
   1   224   1     0     3     3  0.142      0.142      5.720e-05 
   1   225   1     0     4     4  0.143      0.143      8.580e-05 
   1   226   1U    0     5     5  0.143      0.143      0.0001287 
   1   226   2U    0     4     4  0.143      0.143      3.218e-05 
   1   226   3     0     4     4  0.143      0.143      8.044e-06 
   1   227   1     0     3     3  0.143      0.143      1.207e-05 
   1   228   1     0     3     3  0.143      0.143      1.810e-05 
   1   229   1     0     3     3  0.143      0.143      2.715e-05 
   1   230   1     0     4     4  0.143      0.143      4.072e-05 
   1   231   1     0     4     4  0.143      0.143      6.108e-05 
   1   232   1     0     4     4  0.143      0.143      9.163e-05 
   1   233   1U    0     6     6  0.143      0.143      0.0001374 
   1   233   2     0     4     4  0.143      0.143      3.436e-05 
