1

   Abaqus 2020                                  Date 05-Jan-2023   Time 16:46:36
   For use by Supplied by Team-SolidSQUAD under license from Dassault Systemes or its subsidiary.

                                                                                 
                                                                                 
 STEP    1     INCREMENT     1     STEP TIME    0.00    


                        S T E P       1     S T A T I C   A N A L Y S I S


                                                                                          

     AUTOMATIC TIME CONTROL WITH -
          A SUGGESTED INITIAL TIME INCREMENT OF                1.000E-03
          AND A TOTAL TIME PERIOD OF                           0.200    
          THE MINIMUM TIME INCREMENT ALLOWED IS                1.000E-08
          THE MAXIMUM TIME INCREMENT ALLOWED IS                1.000E-03

     LINEAR EQUATION SOLVER TYPE         DIRECT SPARSE

 CONVERGENCE TOLERANCE PARAMETERS FOR FORCE    
     CRITERION FOR RESIDUAL FORCE     FOR A NONLINEAR PROBLEM          5.000E-03
     CRITERION FOR DISP.    CORRECTION IN A NONLINEAR PROBLEM          1.000E-02
     INITIAL VALUE OF TIME AVERAGE FORCE                               1.000E-02
     AVERAGE FORCE     IS TIME AVERAGE FORCE    
     ALTERNATE CRIT. FOR RESIDUAL FORCE     FOR A NONLINEAR PROBLEM    2.000E-02
     CRITERION FOR ZERO FORCE     RELATIVE TO TIME AVRG. FORCE         1.000E-05
     CRITERION FOR RESIDUAL FORCE     WHEN THERE IS ZERO FLUX          1.000E-05
     CRITERION FOR DISP.    CORRECTION WHEN THERE IS ZERO FLUX         1.000E-03
     CRITERION FOR RESIDUAL FORCE     FOR A LINEAR INCREMENT           1.000E-08
     FIELD CONVERSION RATIO                                             1.00    
     CRITERION FOR ZERO FORCE     REL. TO TIME AVRG. MAX. FORCE        1.000E-05
     CRITERION FOR ZERO DISP.    RELATIVE TO CHARACTERISTIC LENGTH     1.000E-08

 CONVERGENCE TOLERANCE PARAMETERS FOR MOMENT   
     CRITERION FOR RESIDUAL MOMENT    FOR A NONLINEAR PROBLEM          5.000E-03
     CRITERION FOR ROTATION CORRECTION IN A NONLINEAR PROBLEM          1.000E-02
     INITIAL VALUE OF TIME AVERAGE MOMENT                              1.000E-02
     AVERAGE MOMENT    IS TIME AVERAGE MOMENT   
     ALTERNATE CRIT. FOR RESIDUAL MOMENT    FOR A NONLINEAR PROBLEM    2.000E-02
     CRITERION FOR ZERO MOMENT    RELATIVE TO TIME AVRG. MOMENT        1.000E-05
     CRITERION FOR RESIDUAL MOMENT    WHEN THERE IS ZERO FLUX          1.000E-05
     CRITERION FOR ROTATION CORRECTION WHEN THERE IS ZERO FLUX         1.000E-03
     CRITERION FOR RESIDUAL MOMENT    FOR A LINEAR INCREMENT           1.000E-08
     FIELD CONVERSION RATIO                                             1.00    
     CRITERION FOR ZERO MOMENT    REL. TO TIME AVRG. MAX. MOMENT       1.000E-05

     VOLUMETRIC STRAIN COMPATIBILITY TOLERANCE FOR HYBRID SOLIDS       1.000E-05
     AXIAL STRAIN COMPATIBILITY TOLERANCE FOR HYBRID BEAMS             1.000E-05
     TRANS. SHEAR STRAIN COMPATIBILITY TOLERANCE FOR HYBRID BEAMS      1.000E-05
     SOFT CONTACT CONSTRAINT COMPATIBILITY TOLERANCE FOR P>P0          5.000E-03
     SOFT CONTACT CONSTRAINT COMPATIBILITY TOLERANCE FOR P=0.0         0.100    
     CONTACT FORCE ERROR TOLERANCE FOR CONVERT SDI=YES                 1.00    
     DISPLACEMENT COMPATIBILITY TOLERANCE FOR DCOUP ELEMENTS           1.000E-05
     ROTATION COMPATIBILITY TOLERANCE FOR DCOUP ELEMENTS               1.000E-05

 EQUILIBRIUM WILL BE CHECKED FOR SEVERE DISCONTINUITY ITERATIONS

 TIME INCREMENTATION CONTROL PARAMETERS:
     FIRST EQUILIBRIUM ITERATION FOR CONSECUTIVE DIVERGENCE CHECK              4
     EQUILIBRIUM ITERATION AT WHICH LOG. CONVERGENCE RATE CHECK BEGINS         8
     EQUILIBRIUM ITERATION AFTER WHICH ALTERNATE RESIDUAL IS USED              9
     MAXIMUM EQUILIBRIUM ITERATIONS ALLOWED                                   16
     EQUILIBRIUM ITERATION COUNT FOR CUT-BACK IN NEXT INCREMENT               10
     MAXIMUM EQUILIB. ITERS IN TWO INCREMENTS FOR TIME INCREMENT INCREASE      4
     MAXIMUM ITERATIONS FOR SEVERE DISCONTINUITIES                            50
     MAXIMUM ATTEMPTS ALLOWED IN AN INCREMENT                                  5
     MAXIMUM DISCON. ITERS IN TWO INCREMENTS FOR TIME INCREMENT INCREASE      50
     MAXIMUM CONTACT AUGMENTATIONS FOR *SURFACE BEHAVIOR,AUGMENTED LAGRANGE   50
     CUT-BACK FACTOR AFTER DIVERGENCE                                 0.2500    
     CUT-BACK FACTOR FOR TOO SLOW CONVERGENCE                         0.5000    
     CUT-BACK FACTOR AFTER TOO MANY EQUILIBRIUM ITERATIONS            0.7500    
     CUT-BACK FACTOR AFTER TOO MANY SEVERE DISCONTINUITY ITERATIONS   0.2500    
     CUT-BACK FACTOR AFTER PROBLEMS IN ELEMENT ASSEMBLY               0.2500    
     INCREASE FACTOR AFTER TWO INCREMENTS THAT CONVERGE QUICKLY        1.500    
     MAX. TIME INCREMENT INCREASE FACTOR ALLOWED                       1.500    
     MAX. TIME INCREMENT INCREASE FACTOR ALLOWED (DYNAMICS)            1.250    
     MAX. TIME INCREMENT INCREASE FACTOR ALLOWED (DIFFUSION)           2.000    
     MINIMUM TIME INCREMENT RATIO FOR EXTRAPOLATION TO OCCUR          0.1000    
     MAX. RATIO OF TIME INCREMENT TO STABILITY LIMIT                   1.000    
     FRACTION OF STABILITY LIMIT FOR NEW TIME INCREMENT               0.9500    
     TIME INCREMENT INCREASE FACTOR BEFORE A TIME POINT                1.000    
     GLOBAL STABILIZATION CONTROL IS NOT USED

          PRINT OF INCREMENT NUMBER, TIME, ETC., EVERY    1  INCREMENTS

     THE MAXIMUM NUMBER OF INCREMENTS IN THIS STEP IS                 *******

          LARGE DISPLACEMENT THEORY WILL BE USED

          UNSYMMETRIC MATRIX STORAGE AND SOLUTION WILL BE USED

     LINEAR EXTRAPOLATION WILL BE USED

     CHARACTERISTIC ELEMENT LENGTH     0.143    

     DETAILS REGARDING ACTUAL SOLUTION WAVEFRONT REQUESTED

     DETAILED OUTPUT OF DIAGNOSTICS TO DATABASE REQUESTED

     PRINT OF INCREMENT NUMBER, TIME, ETC., TO THE MESSAGE FILE EVERY     1  INCREMENTS

     ELEMENT OPERATIONS WILL BE CARRIED OUT IN PARALLEL USING  96 PROCESSORS

     PARALLEL CONTACT TRACKING ENABLED


     COLLECTING MODEL CONSTRAINT INFORMATION FOR OVERCONSTRAINT CHECKS

     COLLECTING STEP CONSTRAINT INFORMATION FOR OVERCONSTRAINT CHECKS


  INCREMENT     1 STARTS. ATTEMPT NUMBER  1, TIME INCREMENT  1.000E-03
 
     INITIAL ELEMENT LOAD BALANCE
            PROCESS    1   THREAD     NUMBER OF ELEMENTS
                              1            107
                              2            107
                              3            107
                              4            107
                              5            107
                              6            107
                              7            107
                              8            107
                              9            107
                             10            107
                             11            107
                             12            107
                             13            107
                             14            107
                             15            107
                             16            107
                             17            107
                             18            107
                             19            107
                             20            107
                             21            107
                             22            107
                             23            107
                             24            107
                             25            107
                             26            107
                             27            107
                             28            107
                             29            107
                             30            107
                             31            107
                             32            107
                             33            107
                             34            107
                             35            107
                             36            107
                             37            107
                             38            107
                             39            107
                             40            107
                             41            107
                             42            107
                             43            107
                             44            107
                             45            107
                             46            107
                             47            107
                             48            107
                             49            107
                             50            107
                             51            107
                             52            107
                             53            107
                             54            107
                             55            107
                             56            107
                             57            107
                             58            107
                             59            107
                             60            107
                             61            107
                             62            107
                             63            107
                             64            107
                             65            107
                             66            107
                             67            107
                             68            107
                             69            107
                             70            107
                             71            107
                             72            107
                             73            107
                             74            107
                             75            107
                             76            107
                             77            107
                             78            107
                             79            107
                             80            107
                             81            107
                             82            107
                             83            107
                             84            107
                             85            107
                             86            107
                             87            107
                             88            107
                             89            107
                             90            107
                             91            107
                             92            107
                             93            107
                             94            107
                             95            125
                             96            107

  NUMBER OF EQUATIONS =     34656     NUMBER OF RHS =    1
  NUMBER OF FLOATING PT. OPERATIONS =  3.38E+10

  USING THE DIRECT SOLVER WITH  96 PROCESSORS

     CHECK POINT   START OF SOLVER    

     CHECK POINT  END OF SOLVER       

       ELAPSED USER TIME (SEC)      =   14.060    
       ELAPSED SYSTEM TIME (SEC)    =   5.4800    
       ELAPSED TOTAL CPU TIME (SEC) =   19.540    
       ELAPSED WALLCLOCK TIME (SEC) =          0

               CONVERGENCE CHECKS FOR EQUILIBRIUM ITERATION     1


 AVERAGE FORCE                      0.603       TIME AVG. FORCE       0.603    
 LARGEST RESIDUAL FORCE              1.71       AT NODE        332   DOF  2
   INSTANCE: PART-1-1                                                                        
 LARGEST INCREMENT OF DISP.         2.000E-02   AT NODE      11551   DOF  3
   INSTANCE: PART-1-1                                                                        
 LARGEST CORRECTION TO DISP.        2.000E-02   AT NODE      11551   DOF  3
   INSTANCE: PART-1-1                                                                        
          FORCE     EQUILIBRIUM NOT ACHIEVED WITHIN TOLERANCE.

 AVERAGE MOMENT                      0.00       TIME AVG. MOMENT      8.620E-02
                                                (FROM FORCE     FIELD)
 ALL MOMENT    RESIDUALS ARE ZERO
 LARGEST INCREMENT OF ROTATION     -2.769E-33   AT NODE      11551   DOF  4
   INSTANCE: PART-1-1                                                                        
 LARGEST CORRECTION TO ROTATION    -2.769E-33   AT NODE      11551   DOF  4
   INSTANCE: PART-1-1                                                                        
          THERE IS ZERO MOMENT    EVERYWHERE

  NUMBER OF EQUATIONS =     34656     NUMBER OF RHS =    1
  NUMBER OF FLOATING PT. OPERATIONS =  3.38E+10

  USING THE DIRECT SOLVER WITH  96 PROCESSORS

     CHECK POINT   START OF SOLVER    

     CHECK POINT  END OF SOLVER       

       ELAPSED USER TIME (SEC)      =   15.170    
       ELAPSED SYSTEM TIME (SEC)    =   2.4200    
       ELAPSED TOTAL CPU TIME (SEC) =   17.590    
       ELAPSED WALLCLOCK TIME (SEC) =          0

               CONVERGENCE CHECKS FOR EQUILIBRIUM ITERATION     2


 AVERAGE FORCE                      0.559       TIME AVG. FORCE       0.559    
 LARGEST RESIDUAL FORCE             0.747       AT NODE        660   DOF  2
   INSTANCE: PART-1-1                                                                        
 LARGEST INCREMENT OF DISP.         2.000E-02   AT NODE      11551   DOF  3
   INSTANCE: PART-1-1                                                                        
 LARGEST CORRECTION TO DISP.        2.276E-04   AT NODE       9413   DOF  3
   INSTANCE: PART-1-1                                                                        
          FORCE     EQUILIBRIUM NOT ACHIEVED WITHIN TOLERANCE.

 AVERAGE MOMENT                      0.00       TIME AVG. MOMENT      7.990E-02
                                                (FROM FORCE     FIELD)
 ALL MOMENT    RESIDUALS ARE ZERO
 LARGEST INCREMENT OF ROTATION     -2.450E-33   AT NODE      11551   DOF  4
   INSTANCE: PART-1-1                                                                        
 LARGEST CORRECTION TO ROTATION     3.191E-34   AT NODE      11551   DOF  4
   INSTANCE: PART-1-1                                                                        
          THERE IS ZERO MOMENT    EVERYWHERE

  NUMBER OF EQUATIONS =     34656     NUMBER OF RHS =    1
  NUMBER OF FLOATING PT. OPERATIONS =  3.38E+10

  USING THE DIRECT SOLVER WITH  96 PROCESSORS

     CHECK POINT   START OF SOLVER    

     CHECK POINT  END OF SOLVER       

       ELAPSED USER TIME (SEC)      =   13.550    
       ELAPSED SYSTEM TIME (SEC)    =   2.6100    
       ELAPSED TOTAL CPU TIME (SEC) =   16.160    
       ELAPSED WALLCLOCK TIME (SEC) =          1

               CONVERGENCE CHECKS FOR EQUILIBRIUM ITERATION     3


 AVERAGE FORCE                      0.559       TIME AVG. FORCE       0.559    
 LARGEST RESIDUAL FORCE             0.271       AT NODE        344   DOF  2
   INSTANCE: PART-1-1                                                                        
 LARGEST INCREMENT OF DISP.         2.000E-02   AT NODE      11551   DOF  3
   INSTANCE: PART-1-1                                                                        
 LARGEST CORRECTION TO DISP.        1.485E-04   AT NODE        660   DOF  2
   INSTANCE: PART-1-1                                                                        
          FORCE     EQUILIBRIUM NOT ACHIEVED WITHIN TOLERANCE.

 AVERAGE MOMENT                      0.00       TIME AVG. MOMENT      7.992E-02
                                                (FROM FORCE     FIELD)
 ALL MOMENT    RESIDUALS ARE ZERO
 LARGEST INCREMENT OF ROTATION     -2.456E-33   AT NODE      11551   DOF  4
   INSTANCE: PART-1-1                                                                        
 LARGEST CORRECTION TO ROTATION    -5.665E-36   AT NODE      11551   DOF  4
   INSTANCE: PART-1-1                                                                        
          THERE IS ZERO MOMENT    EVERYWHERE

  NUMBER OF EQUATIONS =     34656     NUMBER OF RHS =    1
  NUMBER OF FLOATING PT. OPERATIONS =  3.38E+10

  USING THE DIRECT SOLVER WITH  96 PROCESSORS

     CHECK POINT   START OF SOLVER    

     CHECK POINT  END OF SOLVER       

       ELAPSED USER TIME (SEC)      =   13.340    
       ELAPSED SYSTEM TIME (SEC)    =   2.5700    
       ELAPSED TOTAL CPU TIME (SEC) =   15.910    
       ELAPSED WALLCLOCK TIME (SEC) =          1

               CONVERGENCE CHECKS FOR EQUILIBRIUM ITERATION     4


 AVERAGE FORCE                      0.559       TIME AVG. FORCE       0.559    
 LARGEST RESIDUAL FORCE             0.271       AT NODE      11235   DOF  1
   INSTANCE: PART-1-1                                                                        
 LARGEST INCREMENT OF DISP.         2.000E-02   AT NODE      11551   DOF  3
   INSTANCE: PART-1-1                                                                        
 LARGEST CORRECTION TO DISP.        5.317E-05   AT NODE        344   DOF  2
   INSTANCE: PART-1-1                                                                        
          FORCE     EQUILIBRIUM NOT ACHIEVED WITHIN TOLERANCE.

 AVERAGE MOMENT                      0.00       TIME AVG. MOMENT      7.992E-02
                                                (FROM FORCE     FIELD)
 ALL MOMENT    RESIDUALS ARE ZERO
 LARGEST INCREMENT OF ROTATION     -2.454E-33   AT NODE      11551   DOF  4
   INSTANCE: PART-1-1                                                                        
 LARGEST CORRECTION TO ROTATION    -2.019E-36   AT NODE      11551   DOF  5
   INSTANCE: PART-1-1                                                                        
          THERE IS ZERO MOMENT    EVERYWHERE

  NUMBER OF EQUATIONS =     34656     NUMBER OF RHS =    1
  NUMBER OF FLOATING PT. OPERATIONS =  3.38E+10

  USING THE DIRECT SOLVER WITH  96 PROCESSORS

     CHECK POINT   START OF SOLVER    

     CHECK POINT  END OF SOLVER       

       ELAPSED USER TIME (SEC)      =   16.300    
       ELAPSED SYSTEM TIME (SEC)    =   2.7700    
       ELAPSED TOTAL CPU TIME (SEC) =   19.070    
       ELAPSED WALLCLOCK TIME (SEC) =          0

               CONVERGENCE CHECKS FOR EQUILIBRIUM ITERATION     5


 AVERAGE FORCE                      0.559       TIME AVG. FORCE       0.559    
 LARGEST RESIDUAL FORCE             0.213       AT NODE      11235   DOF  2
   INSTANCE: PART-1-1                                                                        
 LARGEST INCREMENT OF DISP.         2.000E-02   AT NODE      11551   DOF  3
   INSTANCE: PART-1-1                                                                        
 LARGEST CORRECTION TO DISP.       -4.830E-05   AT NODE      11235   DOF  2
   INSTANCE: PART-1-1                                                                        
          FORCE     EQUILIBRIUM NOT ACHIEVED WITHIN TOLERANCE.

 AVERAGE MOMENT                      0.00       TIME AVG. MOMENT      7.992E-02
                                                (FROM FORCE     FIELD)
 ALL MOMENT    RESIDUALS ARE ZERO
 LARGEST INCREMENT OF ROTATION     -2.454E-33   AT NODE      11551   DOF  4
   INSTANCE: PART-1-1                                                                        
 LARGEST CORRECTION TO ROTATION     4.060E-37   AT NODE      11551   DOF  4
   INSTANCE: PART-1-1                                                                        
          THERE IS ZERO MOMENT    EVERYWHERE

  NUMBER OF EQUATIONS =     34656     NUMBER OF RHS =    1
  NUMBER OF FLOATING PT. OPERATIONS =  3.38E+10

  USING THE DIRECT SOLVER WITH  96 PROCESSORS

     CHECK POINT   START OF SOLVER    

     CHECK POINT  END OF SOLVER       

       ELAPSED USER TIME (SEC)      =   13.680    
       ELAPSED SYSTEM TIME (SEC)    =   2.3900    
       ELAPSED TOTAL CPU TIME (SEC) =   16.070    
       ELAPSED WALLCLOCK TIME (SEC) =          0

               CONVERGENCE CHECKS FOR EQUILIBRIUM ITERATION     6


 AVERAGE FORCE                      0.559       TIME AVG. FORCE       0.559    
 LARGEST RESIDUAL FORCE             0.271       AT NODE      11235   DOF  1
   INSTANCE: PART-1-1                                                                        
 LARGEST INCREMENT OF DISP.         2.000E-02   AT NODE      11551   DOF  3
   INSTANCE: PART-1-1                                                                        
 LARGEST CORRECTION TO DISP.        4.831E-05   AT NODE      11235   DOF  2
   INSTANCE: PART-1-1                                                                        
          FORCE     EQUILIBRIUM NOT ACHIEVED WITHIN TOLERANCE.

 AVERAGE MOMENT                      0.00       TIME AVG. MOMENT      7.992E-02
                                                (FROM FORCE     FIELD)
 ALL MOMENT    RESIDUALS ARE ZERO
 LARGEST INCREMENT OF ROTATION     -2.454E-33   AT NODE      11551   DOF  4
   INSTANCE: PART-1-1                                                                        
 LARGEST CORRECTION TO ROTATION    -4.022E-37   AT NODE      11551   DOF  4
   INSTANCE: PART-1-1                                                                        
          THERE IS ZERO MOMENT    EVERYWHERE
 

 ***NOTE: THE SOLUTION APPEARS TO BE DIVERGING. CONVERGENCE IS JUDGED UNLIKELY.


  INCREMENT     1 STARTS. ATTEMPT NUMBER  2, TIME INCREMENT  2.500E-04
 
     INITIAL ELEMENT LOAD BALANCE
            PROCESS    1   THREAD     NUMBER OF ELEMENTS
                              1            107
                              2            107
                              3            107
                              4            107
                              5            107
                              6            107
                              7            107
                              8            107
                              9            107
                             10            107
                             11            107
                             12            107
                             13            107
                             14            107
                             15            125
                             16            107
                             17            107
                             18            107
                             19            107
                             20            107
                             21            107
                             22            107
                             23            107
                             24            107
                             25            107
                             26            107
                             27            107
                             28            107
                             29            107
                             30            107
                             31            107
                             32            107
                             33            107
                             34            107
                             35            107
                             36            107
                             37            107
                             38            107
                             39            107
                             40            107
                             41            107
                             42            107
                             43            107
                             44            107
                             45            107
                             46            107
                             47            107
                             48            107
                             49            107
                             50            107
                             51            107
                             52            107
                             53            107
                             54            107
                             55            107
                             56            107
                             57            107
                             58            107
                             59            107
                             60            107
                             61            107
                             62            107
                             63            107
                             64            107
                             65            107
                             66            107
                             67            107
                             68            107
                             69            107
                             70            107
                             71            107
                             72            107
                             73            107
                             74            107
                             75            107
                             76            107
                             77            107
                             78            107
                             79            107
                             80            107
                             81            107
                             82            107
                             83            107
                             84            107
                             85            107
                             86            107
                             87            107
                             88            107
                             89            107
                             90            107
                             91            107
                             92            107
                             93            107
                             94            107
                             95            107
                             96            107

  NUMBER OF EQUATIONS =     34656     NUMBER OF RHS =    1
  NUMBER OF FLOATING PT. OPERATIONS =  3.38E+10

  USING THE DIRECT SOLVER WITH  96 PROCESSORS

     CHECK POINT   START OF SOLVER    

     CHECK POINT  END OF SOLVER       

       ELAPSED USER TIME (SEC)      =   13.540    
       ELAPSED SYSTEM TIME (SEC)    =   2.5700    
       ELAPSED TOTAL CPU TIME (SEC) =   16.110    
       ELAPSED WALLCLOCK TIME (SEC) =          0

               CONVERGENCE CHECKS FOR EQUILIBRIUM ITERATION     1


 AVERAGE FORCE                      0.158       TIME AVG. FORCE       0.158    
 LARGEST RESIDUAL FORCE            -2.552E-03   AT NODE       5761   DOF  1
   INSTANCE: PART-1-1                                                                        
 LARGEST INCREMENT OF DISP.         5.000E-03   AT NODE      11551   DOF  3
   INSTANCE: PART-1-1                                                                        
 LARGEST CORRECTION TO DISP.        5.000E-03   AT NODE      11551   DOF  3
   INSTANCE: PART-1-1                                                                        
          FORCE     EQUILIBRIUM NOT ACHIEVED WITHIN TOLERANCE.

 AVERAGE MOMENT                      0.00       TIME AVG. MOMENT      2.260E-02
                                                (FROM FORCE     FIELD)
 ALL MOMENT    RESIDUALS ARE ZERO
 LARGEST INCREMENT OF ROTATION     -6.924E-34   AT NODE      11551   DOF  4
   INSTANCE: PART-1-1                                                                        
 LARGEST CORRECTION TO ROTATION    -6.924E-34   AT NODE      11551   DOF  4
   INSTANCE: PART-1-1                                                                        
          THERE IS ZERO MOMENT    EVERYWHERE

  NUMBER OF EQUATIONS =     34656     NUMBER OF RHS =    1
  NUMBER OF FLOATING PT. OPERATIONS =  3.38E+10

  USING THE DIRECT SOLVER WITH  96 PROCESSORS

     CHECK POINT   START OF SOLVER    

     CHECK POINT  END OF SOLVER       

       ELAPSED USER TIME (SEC)      =   13.850    
       ELAPSED SYSTEM TIME (SEC)    =   3.3900    
       ELAPSED TOTAL CPU TIME (SEC) =   17.240    
       ELAPSED WALLCLOCK TIME (SEC) =          0

               CONVERGENCE CHECKS FOR EQUILIBRIUM ITERATION     2


 AVERAGE FORCE                      0.158       TIME AVG. FORCE       0.158    
 LARGEST RESIDUAL FORCE             5.003E-06   AT NODE        344   DOF  3
   INSTANCE: PART-1-1                                                                        
 LARGEST INCREMENT OF DISP.         5.000E-03   AT NODE      11551   DOF  3
   INSTANCE: PART-1-1                                                                        
 LARGEST CORRECTION TO DISP.       -6.144E-07   AT NODE       5611   DOF  2
   INSTANCE: PART-1-1                                                                        
          THE FORCE     EQUILIBRIUM EQUATIONS HAVE CONVERGED

 AVERAGE MOMENT                      0.00       TIME AVG. MOMENT      2.261E-02
                                                (FROM FORCE     FIELD)
 ALL MOMENT    RESIDUALS ARE ZERO
 LARGEST INCREMENT OF ROTATION     -7.015E-34   AT NODE      11551   DOF  4
   INSTANCE: PART-1-1                                                                        
 LARGEST CORRECTION TO ROTATION    -9.169E-36   AT NODE      11551   DOF  4
   INSTANCE: PART-1-1                                                                        
          THERE IS ZERO MOMENT    EVERYWHERE

 ITERATION SUMMARY FOR THE INCREMENT:   2 TOTAL ITERATIONS, OF WHICH
   0 ARE SEVERE DISCONTINUITY ITERATIONS AND  2 ARE EQUILIBRIUM ITERATIONS.

 TIME INCREMENT COMPLETED  2.500E-04,  FRACTION OF STEP COMPLETED  1.250E-03
 STEP TIME COMPLETED       2.500E-04,  TOTAL TIME COMPLETED        2.500E-04


  INCREMENT     2 STARTS. ATTEMPT NUMBER  1, TIME INCREMENT  2.500E-04

  NUMBER OF EQUATIONS =     34656     NUMBER OF RHS =    1
  NUMBER OF FLOATING PT. OPERATIONS =  3.38E+10

  USING THE DIRECT SOLVER WITH  96 PROCESSORS

     CHECK POINT   START OF SOLVER    

     CHECK POINT  END OF SOLVER       

       ELAPSED USER TIME (SEC)      =   14.180    
       ELAPSED SYSTEM TIME (SEC)    =   2.3600    
       ELAPSED TOTAL CPU TIME (SEC) =   16.540    
       ELAPSED WALLCLOCK TIME (SEC) =          0

               CONVERGENCE CHECKS FOR EQUILIBRIUM ITERATION     1


 AVERAGE FORCE                      0.316       TIME AVG. FORCE       0.237    
 LARGEST RESIDUAL FORCE             1.542E-03   AT NODE        359   DOF  2
   INSTANCE: PART-1-1                                                                        
 LARGEST INCREMENT OF DISP.         5.000E-03   AT NODE      11551   DOF  3
   INSTANCE: PART-1-1                                                                        
 LARGEST CORRECTION TO DISP.        1.209E-05   AT NODE        345   DOF  2
   INSTANCE: PART-1-1                                                                        
          FORCE     EQUILIBRIUM NOT ACHIEVED WITHIN TOLERANCE.

 AVERAGE MOMENT                      0.00       TIME AVG. MOMENT      2.261E-02
                                                (FROM FORCE     FIELD)
 ALL MOMENT    RESIDUALS ARE ZERO
 LARGEST INCREMENT OF ROTATION     -1.399E-33   AT NODE      11551   DOF  4
   INSTANCE: PART-1-1                                                                        
 LARGEST CORRECTION TO ROTATION    -6.978E-34   AT NODE      11551   DOF  4
   INSTANCE: PART-1-1                                                                        
          THERE IS ZERO MOMENT    EVERYWHERE

  NUMBER OF EQUATIONS =     34656     NUMBER OF RHS =    1
  NUMBER OF FLOATING PT. OPERATIONS =  3.38E+10

  USING THE DIRECT SOLVER WITH  96 PROCESSORS

     CHECK POINT   START OF SOLVER    

     CHECK POINT  END OF SOLVER       

       ELAPSED USER TIME (SEC)      =   16.140    
       ELAPSED SYSTEM TIME (SEC)    =   2.1200    
       ELAPSED TOTAL CPU TIME (SEC) =   18.260    
       ELAPSED WALLCLOCK TIME (SEC) =          1

               CONVERGENCE CHECKS FOR EQUILIBRIUM ITERATION     2


 AVERAGE FORCE                      0.316       TIME AVG. FORCE       0.237    
 LARGEST RESIDUAL FORCE            -1.759E-05   AT NODE        660   DOF  2
   INSTANCE: PART-1-1                                                                        
 LARGEST INCREMENT OF DISP.         5.000E-03   AT NODE      11551   DOF  3
   INSTANCE: PART-1-1                                                                        
 LARGEST CORRECTION TO DISP.        1.240E-07   AT NODE        660   DOF  1
   INSTANCE: PART-1-1                                                                        
          THE FORCE     EQUILIBRIUM EQUATIONS HAVE CONVERGED

 AVERAGE MOMENT                      0.00       TIME AVG. MOMENT      2.261E-02
                                                (FROM FORCE     FIELD)
 ALL MOMENT    RESIDUALS ARE ZERO
 LARGEST INCREMENT OF ROTATION     -1.400E-33   AT NODE      11551   DOF  4
   INSTANCE: PART-1-1                                                                        
 LARGEST CORRECTION TO ROTATION     3.958E-37   AT NODE      11551   DOF  5
   INSTANCE: PART-1-1                                                                        
          THERE IS ZERO MOMENT    EVERYWHERE
          TIME INCREMENT MAY NOW INCREASE TO    3.750E-04

 ITERATION SUMMARY FOR THE INCREMENT:   2 TOTAL ITERATIONS, OF WHICH
   0 ARE SEVERE DISCONTINUITY ITERATIONS AND  2 ARE EQUILIBRIUM ITERATIONS.

 TIME INCREMENT COMPLETED  2.500E-04,  FRACTION OF STEP COMPLETED  2.500E-03
 STEP TIME COMPLETED       5.000E-04,  TOTAL TIME COMPLETED        5.000E-04


  INCREMENT     3 STARTS. ATTEMPT NUMBER  1, TIME INCREMENT  3.750E-04

  NUMBER OF EQUATIONS =     34656     NUMBER OF RHS =    1
  NUMBER OF FLOATING PT. OPERATIONS =  3.38E+10

  USING THE DIRECT SOLVER WITH  96 PROCESSORS

     CHECK POINT   START OF SOLVER    

     CHECK POINT  END OF SOLVER       

       ELAPSED USER TIME (SEC)      =   15.460    
       ELAPSED SYSTEM TIME (SEC)    =   2.3500    
       ELAPSED TOTAL CPU TIME (SEC) =   17.810    
       ELAPSED WALLCLOCK TIME (SEC) =          1

               CONVERGENCE CHECKS FOR EQUILIBRIUM ITERATION     1


 AVERAGE FORCE                      0.533       TIME AVG. FORCE       0.336    
 LARGEST RESIDUAL FORCE             2.079E-02   AT NODE        332   DOF  2
   INSTANCE: PART-1-1                                                                        
 LARGEST INCREMENT OF DISP.         7.500E-03   AT NODE      11551   DOF  3
   INSTANCE: PART-1-1                                                                        
 LARGEST CORRECTION TO DISP.        1.016E-04   AT NODE        331   DOF  2
   INSTANCE: PART-1-1                                                                        
          FORCE     EQUILIBRIUM NOT ACHIEVED WITHIN TOLERANCE.

 AVERAGE MOMENT                      0.00       TIME AVG. MOMENT      3.387E-02
                                                (FROM FORCE     FIELD)
 ALL MOMENT    RESIDUALS ARE ZERO
 LARGEST INCREMENT OF ROTATION     -2.342E-33   AT NODE      11551   DOF  4
   INSTANCE: PART-1-1                                                                        
 LARGEST CORRECTION TO ROTATION    -2.421E-34   AT NODE      11551   DOF  4
   INSTANCE: PART-1-1                                                                        
          THERE IS ZERO MOMENT    EVERYWHERE

  NUMBER OF EQUATIONS =     34656     NUMBER OF RHS =    1
  NUMBER OF FLOATING PT. OPERATIONS =  3.38E+10

  USING THE DIRECT SOLVER WITH  96 PROCESSORS

     CHECK POINT   START OF SOLVER    

     CHECK POINT  END OF SOLVER       

       ELAPSED USER TIME (SEC)      =   14.270    
       ELAPSED SYSTEM TIME (SEC)    =   2.5200    
       ELAPSED TOTAL CPU TIME (SEC) =   16.790    
       ELAPSED WALLCLOCK TIME (SEC) =          1

               CONVERGENCE CHECKS FOR EQUILIBRIUM ITERATION     2


 AVERAGE FORCE                      0.533       TIME AVG. FORCE       0.336    
 LARGEST RESIDUAL FORCE            -2.728E-03   AT NODE       4779   DOF  3
   INSTANCE: PART-1-1                                                                        
 LARGEST INCREMENT OF DISP.         7.500E-03   AT NODE      11551   DOF  3
   INSTANCE: PART-1-1                                                                        
 LARGEST CORRECTION TO DISP.        2.136E-06   AT NODE      11222   DOF  1
   INSTANCE: PART-1-1                                                                        
          FORCE     EQUILIBRIUM NOT ACHIEVED WITHIN TOLERANCE.

 AVERAGE MOMENT                      0.00       TIME AVG. MOMENT      3.387E-02
                                                (FROM FORCE     FIELD)
 ALL MOMENT    RESIDUALS ARE ZERO
 LARGEST INCREMENT OF ROTATION     -2.343E-33   AT NODE      11551   DOF  4
   INSTANCE: PART-1-1                                                                        
 LARGEST CORRECTION TO ROTATION     2.029E-36   AT NODE      11551   DOF  5
   INSTANCE: PART-1-1                                                                        
          THERE IS ZERO MOMENT    EVERYWHERE

  NUMBER OF EQUATIONS =     34656     NUMBER OF RHS =    1
  NUMBER OF FLOATING PT. OPERATIONS =  3.38E+10

  USING THE DIRECT SOLVER WITH  96 PROCESSORS

     CHECK POINT   START OF SOLVER    

     CHECK POINT  END OF SOLVER       

       ELAPSED USER TIME (SEC)      =   16.150    
       ELAPSED SYSTEM TIME (SEC)    =   1.9500    
       ELAPSED TOTAL CPU TIME (SEC) =   18.100    
       ELAPSED WALLCLOCK TIME (SEC) =          0

               CONVERGENCE CHECKS FOR EQUILIBRIUM ITERATION     3


 AVERAGE FORCE                      0.533       TIME AVG. FORCE       0.336    
 LARGEST RESIDUAL FORCE            -1.114E-03   AT NODE       6726   DOF  3
   INSTANCE: PART-1-1                                                                        
 LARGEST INCREMENT OF DISP.         7.500E-03   AT NODE      11551   DOF  3
   INSTANCE: PART-1-1                                                                        
 LARGEST CORRECTION TO DISP.       -1.918E-07   AT NODE       4779   DOF  3
   INSTANCE: PART-1-1                                                                        
          THE FORCE     EQUILIBRIUM EQUATIONS HAVE CONVERGED

 AVERAGE MOMENT                      0.00       TIME AVG. MOMENT      3.387E-02
                                                (FROM FORCE     FIELD)
 ALL MOMENT    RESIDUALS ARE ZERO
 LARGEST INCREMENT OF ROTATION     -2.343E-33   AT NODE      11551   DOF  4
   INSTANCE: PART-1-1                                                                        
 LARGEST CORRECTION TO ROTATION    -7.559E-38   AT NODE      11551   DOF  4
   INSTANCE: PART-1-1                                                                        
          THERE IS ZERO MOMENT    EVERYWHERE
          TIME INCREMENT MAY NOW INCREASE TO    5.625E-04

 ITERATION SUMMARY FOR THE INCREMENT:   3 TOTAL ITERATIONS, OF WHICH
   0 ARE SEVERE DISCONTINUITY ITERATIONS AND  3 ARE EQUILIBRIUM ITERATIONS.

 TIME INCREMENT COMPLETED  3.750E-04,  FRACTION OF STEP COMPLETED  4.375E-03
 STEP TIME COMPLETED       8.750E-04,  TOTAL TIME COMPLETED        8.750E-04


  INCREMENT     4 STARTS. ATTEMPT NUMBER  1, TIME INCREMENT  5.625E-04

  NUMBER OF EQUATIONS =     34656     NUMBER OF RHS =    1
  NUMBER OF FLOATING PT. OPERATIONS =  3.38E+10

  USING THE DIRECT SOLVER WITH  96 PROCESSORS

     CHECK POINT   START OF SOLVER    

     CHECK POINT  END OF SOLVER       

       ELAPSED USER TIME (SEC)      =   16.100    
       ELAPSED SYSTEM TIME (SEC)    =   2.0500    
       ELAPSED TOTAL CPU TIME (SEC) =   18.150    
       ELAPSED WALLCLOCK TIME (SEC) =          1

               CONVERGENCE CHECKS FOR EQUILIBRIUM ITERATION     1


 AVERAGE FORCE                      0.670       TIME AVG. FORCE       0.419    
 LARGEST RESIDUAL FORCE            -0.114       AT NODE      11493   DOF  2
   INSTANCE: PART-1-1                                                                        
 LARGEST INCREMENT OF DISP.         1.125E-02   AT NODE      11551   DOF  3
   INSTANCE: PART-1-1                                                                        
 LARGEST CORRECTION TO DISP.        6.184E-04   AT NODE       9413   DOF  3
   INSTANCE: PART-1-1                                                                        
          FORCE     EQUILIBRIUM NOT ACHIEVED WITHIN TOLERANCE.

 AVERAGE MOMENT                      0.00       TIME AVG. MOMENT      4.795E-02
                                                (FROM FORCE     FIELD)
 ALL MOMENT    RESIDUALS ARE ZERO
 LARGEST INCREMENT OF ROTATION     -2.921E-33   AT NODE      11551   DOF  4
   INSTANCE: PART-1-1                                                                        
 LARGEST CORRECTION TO ROTATION     5.941E-34   AT NODE      11551   DOF  4
   INSTANCE: PART-1-1                                                                        
          THERE IS ZERO MOMENT    EVERYWHERE

  NUMBER OF EQUATIONS =     34656     NUMBER OF RHS =    1
  NUMBER OF FLOATING PT. OPERATIONS =  3.38E+10

  USING THE DIRECT SOLVER WITH  96 PROCESSORS

     CHECK POINT   START OF SOLVER    

     CHECK POINT  END OF SOLVER       

       ELAPSED USER TIME (SEC)      =   14.700    
       ELAPSED SYSTEM TIME (SEC)    =   2.9200    
       ELAPSED TOTAL CPU TIME (SEC) =   17.620    
       ELAPSED WALLCLOCK TIME (SEC) =          0

               CONVERGENCE CHECKS FOR EQUILIBRIUM ITERATION     2


 AVERAGE FORCE                      0.670       TIME AVG. FORCE       0.419    
 LARGEST RESIDUAL FORCE            -1.124E-02   AT NODE       1223   DOF  2
   INSTANCE: PART-1-1                                                                        
 LARGEST INCREMENT OF DISP.         1.125E-02   AT NODE      11551   DOF  3
   INSTANCE: PART-1-1                                                                        
 LARGEST CORRECTION TO DISP.       -3.142E-05   AT NODE       9743   DOF  3
   INSTANCE: PART-1-1                                                                        
          FORCE     EQUILIBRIUM NOT ACHIEVED WITHIN TOLERANCE.

 AVERAGE MOMENT                      0.00       TIME AVG. MOMENT      4.795E-02
                                                (FROM FORCE     FIELD)
 ALL MOMENT    RESIDUALS ARE ZERO
 LARGEST INCREMENT OF ROTATION     -2.916E-33   AT NODE      11551   DOF  4
   INSTANCE: PART-1-1                                                                        
 LARGEST CORRECTION TO ROTATION     4.872E-36   AT NODE      11551   DOF  4
   INSTANCE: PART-1-1                                                                        
          THERE IS ZERO MOMENT    EVERYWHERE

  NUMBER OF EQUATIONS =     34656     NUMBER OF RHS =    1
  NUMBER OF FLOATING PT. OPERATIONS =  3.38E+10

  USING THE DIRECT SOLVER WITH  96 PROCESSORS

     CHECK POINT   START OF SOLVER    

     CHECK POINT  END OF SOLVER       

       ELAPSED USER TIME (SEC)      =   15.720    
       ELAPSED SYSTEM TIME (SEC)    =   2.9100    
       ELAPSED TOTAL CPU TIME (SEC) =   18.630    
       ELAPSED WALLCLOCK TIME (SEC) =          0

               CONVERGENCE CHECKS FOR EQUILIBRIUM ITERATION     3


 AVERAGE FORCE                      0.670       TIME AVG. FORCE       0.419    
 LARGEST RESIDUAL FORCE            -1.567E-03   AT NODE        892   DOF  3
   INSTANCE: PART-1-1                                                                        
 LARGEST INCREMENT OF DISP.         1.125E-02   AT NODE      11551   DOF  3
   INSTANCE: PART-1-1                                                                        
 LARGEST CORRECTION TO DISP.       -5.218E-07   AT NODE       4238   DOF  3
   INSTANCE: PART-1-1                                                                        
          THE FORCE     EQUILIBRIUM EQUATIONS HAVE CONVERGED

 AVERAGE MOMENT                      0.00       TIME AVG. MOMENT      4.795E-02
                                                (FROM FORCE     FIELD)
 ALL MOMENT    RESIDUALS ARE ZERO
 LARGEST INCREMENT OF ROTATION     -2.916E-33   AT NODE      11551   DOF  4
   INSTANCE: PART-1-1                                                                        
 LARGEST CORRECTION TO ROTATION     1.627E-37   AT NODE      11551   DOF  5
   INSTANCE: PART-1-1                                                                        
          THERE IS ZERO MOMENT    EVERYWHERE
          TIME INCREMENT MAY NOW INCREASE TO    8.438E-04

 ITERATION SUMMARY FOR THE INCREMENT:   3 TOTAL ITERATIONS, OF WHICH
   0 ARE SEVERE DISCONTINUITY ITERATIONS AND  3 ARE EQUILIBRIUM ITERATIONS.

 TIME INCREMENT COMPLETED  5.625E-04,  FRACTION OF STEP COMPLETED  7.187E-03
 STEP TIME COMPLETED       1.437E-03,  TOTAL TIME COMPLETED        1.437E-03


  INCREMENT     5 STARTS. ATTEMPT NUMBER  1, TIME INCREMENT  8.438E-04

  NUMBER OF EQUATIONS =     34656     NUMBER OF RHS =    1
  NUMBER OF FLOATING PT. OPERATIONS =  3.38E+10

  USING THE DIRECT SOLVER WITH  96 PROCESSORS

     CHECK POINT   START OF SOLVER    

     CHECK POINT  END OF SOLVER       

       ELAPSED USER TIME (SEC)      =   14.650    
       ELAPSED SYSTEM TIME (SEC)    =   2.6600    
       ELAPSED TOTAL CPU TIME (SEC) =   17.310    
       ELAPSED WALLCLOCK TIME (SEC) =          1

               CONVERGENCE CHECKS FOR EQUILIBRIUM ITERATION     1


 AVERAGE FORCE                      0.698       TIME AVG. FORCE       0.475    
 LARGEST RESIDUAL FORCE             0.106       AT NODE        357   DOF  2
   INSTANCE: PART-1-1                                                                        
 LARGEST INCREMENT OF DISP.         1.688E-02   AT NODE      11423   DOF  3
   INSTANCE: PART-1-1                                                                        
 LARGEST CORRECTION TO DISP.       -4.600E-04   AT NODE       2108   DOF  3
   INSTANCE: PART-1-1                                                                        
          FORCE     EQUILIBRIUM NOT ACHIEVED WITHIN TOLERANCE.

 AVERAGE MOMENT                      0.00       TIME AVG. MOMENT      5.989E-02
                                                (FROM FORCE     FIELD)
 ALL MOMENT    RESIDUALS ARE ZERO
 LARGEST INCREMENT OF ROTATION     -3.043E-33   AT NODE      11551   DOF  4
   INSTANCE: PART-1-1                                                                        
 LARGEST CORRECTION TO ROTATION     1.332E-33   AT NODE      11551   DOF  4
   INSTANCE: PART-1-1                                                                        
          THERE IS ZERO MOMENT    EVERYWHERE

  NUMBER OF EQUATIONS =     34656     NUMBER OF RHS =    1
  NUMBER OF FLOATING PT. OPERATIONS =  3.38E+10

  USING THE DIRECT SOLVER WITH  96 PROCESSORS

     CHECK POINT   START OF SOLVER    

     CHECK POINT  END OF SOLVER       

       ELAPSED USER TIME (SEC)      =   15.040    
       ELAPSED SYSTEM TIME (SEC)    =   1.5800    
       ELAPSED TOTAL CPU TIME (SEC) =   16.620    
       ELAPSED WALLCLOCK TIME (SEC) =          1

               CONVERGENCE CHECKS FOR EQUILIBRIUM ITERATION     2


 AVERAGE FORCE                      0.698       TIME AVG. FORCE       0.475    
 LARGEST RESIDUAL FORCE             9.560E-03   AT NODE        894   DOF  2
   INSTANCE: PART-1-1                                                                        
 LARGEST INCREMENT OF DISP.         1.688E-02   AT NODE      11423   DOF  3
   INSTANCE: PART-1-1                                                                        
 LARGEST CORRECTION TO DISP.        2.761E-05   AT NODE       2439   DOF  3
   INSTANCE: PART-1-1                                                                        
          FORCE     EQUILIBRIUM NOT ACHIEVED WITHIN TOLERANCE.

 AVERAGE MOMENT                      0.00       TIME AVG. MOMENT      5.989E-02
                                                (FROM FORCE     FIELD)
 ALL MOMENT    RESIDUALS ARE ZERO
 LARGEST INCREMENT OF ROTATION     -3.036E-33   AT NODE      11551   DOF  4
   INSTANCE: PART-1-1                                                                        
 LARGEST CORRECTION TO ROTATION     6.560E-36   AT NODE      11551   DOF  4
   INSTANCE: PART-1-1                                                                        
          THERE IS ZERO MOMENT    EVERYWHERE

  NUMBER OF EQUATIONS =     34656     NUMBER OF RHS =    1
  NUMBER OF FLOATING PT. OPERATIONS =  3.38E+10

  USING THE DIRECT SOLVER WITH  96 PROCESSORS

     CHECK POINT   START OF SOLVER    

     CHECK POINT  END OF SOLVER       

       ELAPSED USER TIME (SEC)      =   15.540    
       ELAPSED SYSTEM TIME (SEC)    =   2.6400    
       ELAPSED TOTAL CPU TIME (SEC) =   18.180    
       ELAPSED WALLCLOCK TIME (SEC) =          0

               CONVERGENCE CHECKS FOR EQUILIBRIUM ITERATION     3


 AVERAGE FORCE                      0.698       TIME AVG. FORCE       0.475    
 LARGEST RESIDUAL FORCE            -2.906E-03   AT NODE       7408   DOF  1
   INSTANCE: PART-1-1                                                                        
 LARGEST INCREMENT OF DISP.         1.688E-02   AT NODE      11423   DOF  3
   INSTANCE: PART-1-1                                                                        
 LARGEST CORRECTION TO DISP.        5.908E-07   AT NODE       7408   DOF  1
   INSTANCE: PART-1-1                                                                        
          FORCE     EQUILIBRIUM NOT ACHIEVED WITHIN TOLERANCE.

 AVERAGE MOMENT                      0.00       TIME AVG. MOMENT      5.989E-02
                                                (FROM FORCE     FIELD)
 ALL MOMENT    RESIDUALS ARE ZERO
 LARGEST INCREMENT OF ROTATION     -3.036E-33   AT NODE      11551   DOF  4
   INSTANCE: PART-1-1                                                                        
 LARGEST CORRECTION TO ROTATION    -3.146E-37   AT NODE      11551   DOF  4
   INSTANCE: PART-1-1                                                                        
          THERE IS ZERO MOMENT    EVERYWHERE

  NUMBER OF EQUATIONS =     34656     NUMBER OF RHS =    1
  NUMBER OF FLOATING PT. OPERATIONS =  3.38E+10

  USING THE DIRECT SOLVER WITH  96 PROCESSORS

     CHECK POINT   START OF SOLVER    

     CHECK POINT  END OF SOLVER       

       ELAPSED USER TIME (SEC)      =   14.630    
       ELAPSED SYSTEM TIME (SEC)    =   2.9800    
       ELAPSED TOTAL CPU TIME (SEC) =   17.610    
       ELAPSED WALLCLOCK TIME (SEC) =          0

               CONVERGENCE CHECKS FOR EQUILIBRIUM ITERATION     4


 AVERAGE FORCE                      0.698       TIME AVG. FORCE       0.475    
 LARGEST RESIDUAL FORCE             2.771E-03   AT NODE      10300   DOF  3
   INSTANCE: PART-1-1                                                                        
 LARGEST INCREMENT OF DISP.         1.688E-02   AT NODE      11423   DOF  3
   INSTANCE: PART-1-1                                                                        
 LARGEST CORRECTION TO DISP.       -4.114E-07   AT NODE       4951   DOF  2
   INSTANCE: PART-1-1                                                                        
          FORCE     EQUILIBRIUM NOT ACHIEVED WITHIN TOLERANCE.

 AVERAGE MOMENT                      0.00       TIME AVG. MOMENT      5.989E-02
                                                (FROM FORCE     FIELD)
 ALL MOMENT    RESIDUALS ARE ZERO
 LARGEST INCREMENT OF ROTATION     -3.036E-33   AT NODE      11551   DOF  4
   INSTANCE: PART-1-1                                                                        
 LARGEST CORRECTION TO ROTATION    -6.773E-39   AT NODE      11551   DOF  4
   INSTANCE: PART-1-1                                                                        
          THERE IS ZERO MOMENT    EVERYWHERE

  NUMBER OF EQUATIONS =     34656     NUMBER OF RHS =    1
  NUMBER OF FLOATING PT. OPERATIONS =  3.38E+10

  USING THE DIRECT SOLVER WITH  96 PROCESSORS

     CHECK POINT   START OF SOLVER    

     CHECK POINT  END OF SOLVER       

       ELAPSED USER TIME (SEC)      =   13.880    
       ELAPSED SYSTEM TIME (SEC)    =   2.4400    
       ELAPSED TOTAL CPU TIME (SEC) =   16.320    
       ELAPSED WALLCLOCK TIME (SEC) =          0

               CONVERGENCE CHECKS FOR EQUILIBRIUM ITERATION     5


 AVERAGE FORCE                      0.698       TIME AVG. FORCE       0.475    
 LARGEST RESIDUAL FORCE            -2.752E-03   AT NODE      10300   DOF  3
   INSTANCE: PART-1-1                                                                        
 LARGEST INCREMENT OF DISP.         1.688E-02   AT NODE      11423   DOF  3
   INSTANCE: PART-1-1                                                                        
 LARGEST CORRECTION TO DISP.       -3.652E-07   AT NODE       6916   DOF  2
   INSTANCE: PART-1-1                                                                        
          FORCE     EQUILIBRIUM NOT ACHIEVED WITHIN TOLERANCE.

 AVERAGE MOMENT                      0.00       TIME AVG. MOMENT      5.989E-02
                                                (FROM FORCE     FIELD)
 ALL MOMENT    RESIDUALS ARE ZERO
 LARGEST INCREMENT OF ROTATION     -3.036E-33   AT NODE      11551   DOF  4
   INSTANCE: PART-1-1                                                                        
 LARGEST CORRECTION TO ROTATION     1.219E-39   AT NODE      11551   DOF  4
   INSTANCE: PART-1-1                                                                        
          THERE IS ZERO MOMENT    EVERYWHERE

  NUMBER OF EQUATIONS =     34656     NUMBER OF RHS =    1
  NUMBER OF FLOATING PT. OPERATIONS =  3.38E+10

  USING THE DIRECT SOLVER WITH  96 PROCESSORS

     CHECK POINT   START OF SOLVER    

     CHECK POINT  END OF SOLVER       

       ELAPSED USER TIME (SEC)      =   14.570    
       ELAPSED SYSTEM TIME (SEC)    =   3.0600    
       ELAPSED TOTAL CPU TIME (SEC) =   17.630    
       ELAPSED WALLCLOCK TIME (SEC) =          0

               CONVERGENCE CHECKS FOR EQUILIBRIUM ITERATION     6


 AVERAGE FORCE                      0.698       TIME AVG. FORCE       0.475    
 LARGEST RESIDUAL FORCE             2.771E-03   AT NODE      10300   DOF  3
   INSTANCE: PART-1-1                                                                        
 LARGEST INCREMENT OF DISP.         1.688E-02   AT NODE      11423   DOF  3
   INSTANCE: PART-1-1                                                                        
 LARGEST CORRECTION TO DISP.       -3.828E-07   AT NODE       7246   DOF  2
   INSTANCE: PART-1-1                                                                        
          FORCE     EQUILIBRIUM NOT ACHIEVED WITHIN TOLERANCE.

 AVERAGE MOMENT                      0.00       TIME AVG. MOMENT      5.989E-02
                                                (FROM FORCE     FIELD)
 ALL MOMENT    RESIDUALS ARE ZERO
 LARGEST INCREMENT OF ROTATION     -3.036E-33   AT NODE      11551   DOF  4
   INSTANCE: PART-1-1                                                                        
 LARGEST CORRECTION TO ROTATION    -1.150E-39   AT NODE      11551   DOF  4
   INSTANCE: PART-1-1                                                                        
          THERE IS ZERO MOMENT    EVERYWHERE
 

 ***NOTE: THE SOLUTION APPEARS TO BE DIVERGING. CONVERGENCE IS JUDGED UNLIKELY.


  INCREMENT     5 STARTS. ATTEMPT NUMBER  2, TIME INCREMENT  2.109E-04

  NUMBER OF EQUATIONS =     34656     NUMBER OF RHS =    1
  NUMBER OF FLOATING PT. OPERATIONS =  3.38E+10

  USING THE DIRECT SOLVER WITH  96 PROCESSORS

     CHECK POINT   START OF SOLVER    

     CHECK POINT  END OF SOLVER       

       ELAPSED USER TIME (SEC)      =   15.140    
       ELAPSED SYSTEM TIME (SEC)    =   2.7100    
       ELAPSED TOTAL CPU TIME (SEC) =   17.850    
       ELAPSED WALLCLOCK TIME (SEC) =          0

               CONVERGENCE CHECKS FOR EQUILIBRIUM ITERATION     1


 AVERAGE FORCE                      0.672       TIME AVG. FORCE       0.470    
 LARGEST RESIDUAL FORCE             1.474E-02   AT NODE        343   DOF  2
   INSTANCE: PART-1-1                                                                        
 LARGEST INCREMENT OF DISP.         4.229E-03   AT NODE      10748   DOF  3
   INSTANCE: PART-1-1                                                                        
 LARGEST CORRECTION TO DISP.        1.445E-04   AT NODE       9428   DOF  3
   INSTANCE: PART-1-1                                                                        
          FORCE     EQUILIBRIUM NOT ACHIEVED WITHIN TOLERANCE.

 AVERAGE MOMENT                      0.00       TIME AVG. MOMENT      5.989E-02
                                                (FROM FORCE     FIELD)
 ALL MOMENT    RESIDUALS ARE ZERO
 LARGEST INCREMENT OF ROTATION     -2.924E-33   AT NODE      11551   DOF  4
   INSTANCE: PART-1-1                                                                        
 LARGEST CORRECTION TO ROTATION    -1.830E-33   AT NODE      11551   DOF  4
   INSTANCE: PART-1-1                                                                        
          THERE IS ZERO MOMENT    EVERYWHERE

  NUMBER OF EQUATIONS =     34656     NUMBER OF RHS =    1
  NUMBER OF FLOATING PT. OPERATIONS =  3.38E+10

  USING THE DIRECT SOLVER WITH  96 PROCESSORS

     CHECK POINT   START OF SOLVER    

     CHECK POINT  END OF SOLVER       

       ELAPSED USER TIME (SEC)      =   15.120    
       ELAPSED SYSTEM TIME (SEC)    =   1.8700    
       ELAPSED TOTAL CPU TIME (SEC) =   16.990    
       ELAPSED WALLCLOCK TIME (SEC) =          0

               CONVERGENCE CHECKS FOR EQUILIBRIUM ITERATION     2


 AVERAGE FORCE                      0.672       TIME AVG. FORCE       0.470    
 LARGEST RESIDUAL FORCE            -2.951E-03   AT NODE       3113   DOF  3
   INSTANCE: PART-1-1                                                                        
 LARGEST INCREMENT OF DISP.         4.228E-03   AT NODE      10748   DOF  3
   INSTANCE: PART-1-1                                                                        
 LARGEST CORRECTION TO DISP.        2.714E-06   AT NODE        343   DOF  2
   INSTANCE: PART-1-1                                                                        
          FORCE     EQUILIBRIUM NOT ACHIEVED WITHIN TOLERANCE.

 AVERAGE MOMENT                      0.00       TIME AVG. MOMENT      5.989E-02
                                                (FROM FORCE     FIELD)
 ALL MOMENT    RESIDUALS ARE ZERO
 LARGEST INCREMENT OF ROTATION     -2.923E-33   AT NODE      11551   DOF  4
   INSTANCE: PART-1-1                                                                        
 LARGEST CORRECTION TO ROTATION     1.209E-36   AT NODE      11551   DOF  4
   INSTANCE: PART-1-1                                                                        
          THERE IS ZERO MOMENT    EVERYWHERE

  NUMBER OF EQUATIONS =     34656     NUMBER OF RHS =    1
  NUMBER OF FLOATING PT. OPERATIONS =  3.38E+10

  USING THE DIRECT SOLVER WITH  96 PROCESSORS

     CHECK POINT   START OF SOLVER    

     CHECK POINT  END OF SOLVER       

       ELAPSED USER TIME (SEC)      =   14.860    
       ELAPSED SYSTEM TIME (SEC)    =   2.8900    
       ELAPSED TOTAL CPU TIME (SEC) =   17.750    
       ELAPSED WALLCLOCK TIME (SEC) =          1

               CONVERGENCE CHECKS FOR EQUILIBRIUM ITERATION     3


 AVERAGE FORCE                      0.672       TIME AVG. FORCE       0.470    
 LARGEST RESIDUAL FORCE            -1.461E-03   AT NODE       3831   DOF  3
   INSTANCE: PART-1-1                                                                        
 LARGEST INCREMENT OF DISP.         4.228E-03   AT NODE      10748   DOF  3
   INSTANCE: PART-1-1                                                                        
 LARGEST CORRECTION TO DISP.        2.960E-07   AT NODE      11221   DOF  3
   INSTANCE: PART-1-1                                                                        
          THE FORCE     EQUILIBRIUM EQUATIONS HAVE CONVERGED

 AVERAGE MOMENT                      0.00       TIME AVG. MOMENT      5.989E-02
                                                (FROM FORCE     FIELD)
 ALL MOMENT    RESIDUALS ARE ZERO
 LARGEST INCREMENT OF ROTATION     -2.923E-33   AT NODE      11551   DOF  4
   INSTANCE: PART-1-1                                                                        
 LARGEST CORRECTION TO ROTATION    -4.836E-38   AT NODE      11551   DOF  4
   INSTANCE: PART-1-1                                                                        
          THERE IS ZERO MOMENT    EVERYWHERE
          TIME INCREMENT MAY NOW INCREASE TO    3.164E-04

 ITERATION SUMMARY FOR THE INCREMENT:   3 TOTAL ITERATIONS, OF WHICH
   0 ARE SEVERE DISCONTINUITY ITERATIONS AND  3 ARE EQUILIBRIUM ITERATIONS.

 TIME INCREMENT COMPLETED  2.109E-04,  FRACTION OF STEP COMPLETED  8.242E-03
 STEP TIME COMPLETED       1.648E-03,  TOTAL TIME COMPLETED        1.648E-03


  INCREMENT     6 STARTS. ATTEMPT NUMBER  1, TIME INCREMENT  3.164E-04

  NUMBER OF EQUATIONS =     34656     NUMBER OF RHS =    1
  NUMBER OF FLOATING PT. OPERATIONS =  3.38E+10

  USING THE DIRECT SOLVER WITH  96 PROCESSORS

     CHECK POINT   START OF SOLVER    

     CHECK POINT  END OF SOLVER       

       ELAPSED USER TIME (SEC)      =   13.600    
       ELAPSED SYSTEM TIME (SEC)    =   2.9000    
       ELAPSED TOTAL CPU TIME (SEC) =   16.500    
       ELAPSED WALLCLOCK TIME (SEC) =          1

               CONVERGENCE CHECKS FOR EQUILIBRIUM ITERATION     1


 AVERAGE FORCE                      0.688       TIME AVG. FORCE       0.506    
 LARGEST RESIDUAL FORCE            -5.498E-03   AT NODE      11358   DOF  1
   INSTANCE: PART-1-1                                                                        
 LARGEST INCREMENT OF DISP.         6.328E-03   AT NODE      11551   DOF  3
   INSTANCE: PART-1-1                                                                        
 LARGEST CORRECTION TO DISP.        7.657E-05   AT NODE       2798   DOF  3
   INSTANCE: PART-1-1                                                                        
          FORCE     EQUILIBRIUM NOT ACHIEVED WITHIN TOLERANCE.

 AVERAGE MOMENT                      0.00       TIME AVG. MOMENT      6.710E-02
                                                (FROM FORCE     FIELD)
 ALL MOMENT    RESIDUALS ARE ZERO
 LARGEST INCREMENT OF ROTATION     -2.995E-33   AT NODE      11551   DOF  4
   INSTANCE: PART-1-1                                                                        
 LARGEST CORRECTION TO ROTATION     1.389E-33   AT NODE      11551   DOF  4
   INSTANCE: PART-1-1                                                                        
          THERE IS ZERO MOMENT    EVERYWHERE

  NUMBER OF EQUATIONS =     34656     NUMBER OF RHS =    1
  NUMBER OF FLOATING PT. OPERATIONS =  3.38E+10

  USING THE DIRECT SOLVER WITH  96 PROCESSORS

     CHECK POINT   START OF SOLVER    

     CHECK POINT  END OF SOLVER       

       ELAPSED USER TIME (SEC)      =   14.040    
       ELAPSED SYSTEM TIME (SEC)    =   2.7500    
       ELAPSED TOTAL CPU TIME (SEC) =   16.790    
       ELAPSED WALLCLOCK TIME (SEC) =          0

               CONVERGENCE CHECKS FOR EQUILIBRIUM ITERATION     2


 AVERAGE FORCE                      0.688       TIME AVG. FORCE       0.506    
 LARGEST RESIDUAL FORCE            -1.602E-03   AT NODE       1530   DOF  3
   INSTANCE: PART-1-1                                                                        
 LARGEST INCREMENT OF DISP.         6.328E-03   AT NODE      11551   DOF  3
   INSTANCE: PART-1-1                                                                        
 LARGEST CORRECTION TO DISP.       -1.295E-06   AT NODE       9068   DOF  3
   INSTANCE: PART-1-1                                                                        
          THE FORCE     EQUILIBRIUM EQUATIONS HAVE CONVERGED

 AVERAGE MOMENT                      0.00       TIME AVG. MOMENT      6.710E-02
                                                (FROM FORCE     FIELD)
 ALL MOMENT    RESIDUALS ARE ZERO
 LARGEST INCREMENT OF ROTATION     -2.995E-33   AT NODE      11551   DOF  4
   INSTANCE: PART-1-1                                                                        
 LARGEST CORRECTION TO ROTATION    -4.323E-37   AT NODE      11551   DOF  4
   INSTANCE: PART-1-1                                                                        
          THERE IS ZERO MOMENT    EVERYWHERE
          TIME INCREMENT MAY NOW INCREASE TO    4.746E-04

 ITERATION SUMMARY FOR THE INCREMENT:   2 TOTAL ITERATIONS, OF WHICH
   0 ARE SEVERE DISCONTINUITY ITERATIONS AND  2 ARE EQUILIBRIUM ITERATIONS.

 TIME INCREMENT COMPLETED  3.164E-04,  FRACTION OF STEP COMPLETED  9.824E-03
 STEP TIME COMPLETED       1.965E-03,  TOTAL TIME COMPLETED        1.965E-03


  INCREMENT     7 STARTS. ATTEMPT NUMBER  1, TIME INCREMENT  4.746E-04

  NUMBER OF EQUATIONS =     34656     NUMBER OF RHS =    1
  NUMBER OF FLOATING PT. OPERATIONS =  3.38E+10

  USING THE DIRECT SOLVER WITH  96 PROCESSORS

     CHECK POINT   START OF SOLVER    

     CHECK POINT  END OF SOLVER       

       ELAPSED USER TIME (SEC)      =   13.750    
       ELAPSED SYSTEM TIME (SEC)    =   2.9200    
       ELAPSED TOTAL CPU TIME (SEC) =   16.670    
       ELAPSED WALLCLOCK TIME (SEC) =          0

               CONVERGENCE CHECKS FOR EQUILIBRIUM ITERATION     1


 AVERAGE FORCE                      0.714       TIME AVG. FORCE       0.536    
 LARGEST RESIDUAL FORCE            -6.696E-03   AT NODE      11527   DOF  2
   INSTANCE: PART-1-1                                                                        
 LARGEST INCREMENT OF DISP.         9.492E-03   AT NODE      11551   DOF  3
   INSTANCE: PART-1-1                                                                        
 LARGEST CORRECTION TO DISP.        6.482E-05   AT NODE       3125   DOF  3
   INSTANCE: PART-1-1                                                                        
          FORCE     EQUILIBRIUM NOT ACHIEVED WITHIN TOLERANCE.

 AVERAGE MOMENT                      0.00       TIME AVG. MOMENT      7.229E-02
                                                (FROM FORCE     FIELD)
 ALL MOMENT    RESIDUALS ARE ZERO
 LARGEST INCREMENT OF ROTATION     -3.105E-33   AT NODE      11551   DOF  4
   INSTANCE: PART-1-1                                                                        
 LARGEST CORRECTION TO ROTATION     1.388E-33   AT NODE      11551   DOF  4
   INSTANCE: PART-1-1                                                                        
          THERE IS ZERO MOMENT    EVERYWHERE

  NUMBER OF EQUATIONS =     34656     NUMBER OF RHS =    1
  NUMBER OF FLOATING PT. OPERATIONS =  3.38E+10

  USING THE DIRECT SOLVER WITH  96 PROCESSORS

     CHECK POINT   START OF SOLVER    

     CHECK POINT  END OF SOLVER       

       ELAPSED USER TIME (SEC)      =   16.450    
       ELAPSED SYSTEM TIME (SEC)    =   2.3800    
       ELAPSED TOTAL CPU TIME (SEC) =   18.830    
       ELAPSED WALLCLOCK TIME (SEC) =          0

               CONVERGENCE CHECKS FOR EQUILIBRIUM ITERATION     2


 AVERAGE FORCE                      0.714       TIME AVG. FORCE       0.536    
 LARGEST RESIDUAL FORCE             3.853E-03   AT NODE        618   DOF  3
   INSTANCE: PART-1-1                                                                        
 LARGEST INCREMENT OF DISP.         9.492E-03   AT NODE      11551   DOF  3
   INSTANCE: PART-1-1                                                                        
 LARGEST CORRECTION TO DISP.        3.406E-06   AT NODE       3457   DOF  3
   INSTANCE: PART-1-1                                                                        
          FORCE     EQUILIBRIUM NOT ACHIEVED WITHIN TOLERANCE.

 AVERAGE MOMENT                      0.00       TIME AVG. MOMENT      7.229E-02
                                                (FROM FORCE     FIELD)
 ALL MOMENT    RESIDUALS ARE ZERO
 LARGEST INCREMENT OF ROTATION     -3.105E-33   AT NODE      11551   DOF  4
   INSTANCE: PART-1-1                                                                        
 LARGEST CORRECTION TO ROTATION    -7.390E-37   AT NODE      11551   DOF  4
   INSTANCE: PART-1-1                                                                        
          THERE IS ZERO MOMENT    EVERYWHERE

  NUMBER OF EQUATIONS =     34656     NUMBER OF RHS =    1
  NUMBER OF FLOATING PT. OPERATIONS =  3.38E+10

  USING THE DIRECT SOLVER WITH  96 PROCESSORS

     CHECK POINT   START OF SOLVER    

     CHECK POINT  END OF SOLVER       

       ELAPSED USER TIME (SEC)      =   15.030    
       ELAPSED SYSTEM TIME (SEC)    =   2.7400    
       ELAPSED TOTAL CPU TIME (SEC) =   17.770    
       ELAPSED WALLCLOCK TIME (SEC) =          1

               CONVERGENCE CHECKS FOR EQUILIBRIUM ITERATION     3


 AVERAGE FORCE                      0.714       TIME AVG. FORCE       0.536    
 LARGEST RESIDUAL FORCE            -1.839E-03   AT NODE       1101   DOF  3
   INSTANCE: PART-1-1                                                                        
 LARGEST INCREMENT OF DISP.         9.492E-03   AT NODE      11551   DOF  3
   INSTANCE: PART-1-1                                                                        
 LARGEST CORRECTION TO DISP.       -2.273E-07   AT NODE       8423   DOF  3
   INSTANCE: PART-1-1                                                                        
          THE FORCE     EQUILIBRIUM EQUATIONS HAVE CONVERGED

 AVERAGE MOMENT                      0.00       TIME AVG. MOMENT      7.229E-02
                                                (FROM FORCE     FIELD)
 ALL MOMENT    RESIDUALS ARE ZERO
 LARGEST INCREMENT OF ROTATION     -3.105E-33   AT NODE      11551   DOF  4
   INSTANCE: PART-1-1                                                                        
 LARGEST CORRECTION TO ROTATION     1.448E-38   AT NODE      11551   DOF  5
   INSTANCE: PART-1-1                                                                        
          THERE IS ZERO MOMENT    EVERYWHERE
          TIME INCREMENT MAY NOW INCREASE TO    7.119E-04

 ITERATION SUMMARY FOR THE INCREMENT:   3 TOTAL ITERATIONS, OF WHICH
   0 ARE SEVERE DISCONTINUITY ITERATIONS AND  3 ARE EQUILIBRIUM ITERATIONS.

 TIME INCREMENT COMPLETED  4.746E-04,  FRACTION OF STEP COMPLETED  1.220E-02
 STEP TIME COMPLETED       2.439E-03,  TOTAL TIME COMPLETED        2.439E-03


  INCREMENT     8 STARTS. ATTEMPT NUMBER  1, TIME INCREMENT  7.119E-04

  NUMBER OF EQUATIONS =     34656     NUMBER OF RHS =    1
  NUMBER OF FLOATING PT. OPERATIONS =  3.38E+10

  USING THE DIRECT SOLVER WITH  96 PROCESSORS

     CHECK POINT   START OF SOLVER    

     CHECK POINT  END OF SOLVER       

       ELAPSED USER TIME (SEC)      =   14.930    
       ELAPSED SYSTEM TIME (SEC)    =   2.2600    
       ELAPSED TOTAL CPU TIME (SEC) =   17.190    
       ELAPSED WALLCLOCK TIME (SEC) =          0

               CONVERGENCE CHECKS FOR EQUILIBRIUM ITERATION     1


 AVERAGE FORCE                      0.753       TIME AVG. FORCE       0.563    
 LARGEST RESIDUAL FORCE            -1.485E-02   AT NODE      10418   DOF  3
   INSTANCE: PART-1-1                                                                        
 LARGEST INCREMENT OF DISP.         1.424E-02   AT NODE      11551   DOF  3
   INSTANCE: PART-1-1                                                                        
 LARGEST CORRECTION TO DISP.        1.000E-04   AT NODE       3128   DOF  3
   INSTANCE: PART-1-1                                                                        
          FORCE     EQUILIBRIUM NOT ACHIEVED WITHIN TOLERANCE.

 AVERAGE MOMENT                      0.00       TIME AVG. MOMENT      7.653E-02
                                                (FROM FORCE     FIELD)
 ALL MOMENT    RESIDUALS ARE ZERO
 LARGEST INCREMENT OF ROTATION     -3.264E-33   AT NODE      11551   DOF  4
   INSTANCE: PART-1-1                                                                        
 LARGEST CORRECTION TO ROTATION     1.394E-33   AT NODE      11551   DOF  4
   INSTANCE: PART-1-1                                                                        
          THERE IS ZERO MOMENT    EVERYWHERE

  NUMBER OF EQUATIONS =     34656     NUMBER OF RHS =    1
  NUMBER OF FLOATING PT. OPERATIONS =  3.38E+10

  USING THE DIRECT SOLVER WITH  96 PROCESSORS

     CHECK POINT   START OF SOLVER    

     CHECK POINT  END OF SOLVER       

       ELAPSED USER TIME (SEC)      =   14.060    
       ELAPSED SYSTEM TIME (SEC)    =   2.5900    
       ELAPSED TOTAL CPU TIME (SEC) =   16.650    
       ELAPSED WALLCLOCK TIME (SEC) =          1

               CONVERGENCE CHECKS FOR EQUILIBRIUM ITERATION     2


 AVERAGE FORCE                      0.753       TIME AVG. FORCE       0.563    
 LARGEST RESIDUAL FORCE             5.430E-03   AT NODE      10652   DOF  1
   INSTANCE: PART-1-1                                                                        
 LARGEST INCREMENT OF DISP.         1.424E-02   AT NODE      11551   DOF  3
   INSTANCE: PART-1-1                                                                        
 LARGEST CORRECTION TO DISP.       -1.080E-05   AT NODE       8753   DOF  3
   INSTANCE: PART-1-1                                                                        
          FORCE     EQUILIBRIUM NOT ACHIEVED WITHIN TOLERANCE.

 AVERAGE MOMENT                      0.00       TIME AVG. MOMENT      7.653E-02
                                                (FROM FORCE     FIELD)
 ALL MOMENT    RESIDUALS ARE ZERO
 LARGEST INCREMENT OF ROTATION     -3.266E-33   AT NODE      11551   DOF  4
   INSTANCE: PART-1-1                                                                        
 LARGEST CORRECTION TO ROTATION    -1.317E-36   AT NODE      11551   DOF  4
   INSTANCE: PART-1-1                                                                        
          THERE IS ZERO MOMENT    EVERYWHERE

  NUMBER OF EQUATIONS =     34656     NUMBER OF RHS =    1
  NUMBER OF FLOATING PT. OPERATIONS =  3.38E+10

  USING THE DIRECT SOLVER WITH  96 PROCESSORS

     CHECK POINT   START OF SOLVER    

     CHECK POINT  END OF SOLVER       

       ELAPSED USER TIME (SEC)      =   15.230    
       ELAPSED SYSTEM TIME (SEC)    =   2.8100    
       ELAPSED TOTAL CPU TIME (SEC) =   18.040    
       ELAPSED WALLCLOCK TIME (SEC) =          0

               CONVERGENCE CHECKS FOR EQUILIBRIUM ITERATION     3


 AVERAGE FORCE                      0.753       TIME AVG. FORCE       0.563    
 LARGEST RESIDUAL FORCE             3.075E-03   AT NODE      11072   DOF  3
   INSTANCE: PART-1-1                                                                        
 LARGEST INCREMENT OF DISP.         1.424E-02   AT NODE      11551   DOF  3
   INSTANCE: PART-1-1                                                                        
 LARGEST CORRECTION TO DISP.       -1.130E-06   AT NODE       8422   DOF  3
   INSTANCE: PART-1-1                                                                        
          FORCE     EQUILIBRIUM NOT ACHIEVED WITHIN TOLERANCE.

 AVERAGE MOMENT                      0.00       TIME AVG. MOMENT      7.653E-02
                                                (FROM FORCE     FIELD)
 ALL MOMENT    RESIDUALS ARE ZERO
 LARGEST INCREMENT OF ROTATION     -3.266E-33   AT NODE      11551   DOF  4
   INSTANCE: PART-1-1                                                                        
 LARGEST CORRECTION TO ROTATION    -8.238E-38   AT NODE      11551   DOF  4
   INSTANCE: PART-1-1                                                                        
          THERE IS ZERO MOMENT    EVERYWHERE

  NUMBER OF EQUATIONS =     34656     NUMBER OF RHS =    1
  NUMBER OF FLOATING PT. OPERATIONS =  3.38E+10

  USING THE DIRECT SOLVER WITH  96 PROCESSORS

     CHECK POINT   START OF SOLVER    

     CHECK POINT  END OF SOLVER       

       ELAPSED USER TIME (SEC)      =   15.390    
       ELAPSED SYSTEM TIME (SEC)    =   2.3800    
       ELAPSED TOTAL CPU TIME (SEC) =   17.770    
       ELAPSED WALLCLOCK TIME (SEC) =          0

               CONVERGENCE CHECKS FOR EQUILIBRIUM ITERATION     4


 AVERAGE FORCE                      0.753       TIME AVG. FORCE       0.563    
 LARGEST RESIDUAL FORCE            -2.679E-03   AT NODE        914   DOF  3
   INSTANCE: PART-1-1                                                                        
 LARGEST INCREMENT OF DISP.         1.424E-02   AT NODE      11551   DOF  3
   INSTANCE: PART-1-1                                                                        
 LARGEST CORRECTION TO DISP.        4.912E-07   AT NODE        645   DOF  3
   INSTANCE: PART-1-1                                                                        
          THE FORCE     EQUILIBRIUM EQUATIONS HAVE CONVERGED

 AVERAGE MOMENT                      0.00       TIME AVG. MOMENT      7.653E-02
                                                (FROM FORCE     FIELD)
 ALL MOMENT    RESIDUALS ARE ZERO
 LARGEST INCREMENT OF ROTATION     -3.266E-33   AT NODE      11551   DOF  4
   INSTANCE: PART-1-1                                                                        
 LARGEST CORRECTION TO ROTATION    -8.506E-39   AT NODE      11551   DOF  4
   INSTANCE: PART-1-1                                                                        
          THERE IS ZERO MOMENT    EVERYWHERE
          TIME INCREMENT MAY NOW INCREASE TO    1.000E-03

 ITERATION SUMMARY FOR THE INCREMENT:   4 TOTAL ITERATIONS, OF WHICH
   0 ARE SEVERE DISCONTINUITY ITERATIONS AND  4 ARE EQUILIBRIUM ITERATIONS.

 TIME INCREMENT COMPLETED  7.119E-04,  FRACTION OF STEP COMPLETED  1.576E-02
 STEP TIME COMPLETED       3.151E-03,  TOTAL TIME COMPLETED        3.151E-03


  INCREMENT     9 STARTS. ATTEMPT NUMBER  1, TIME INCREMENT  1.000E-03

  NUMBER OF EQUATIONS =     34656     NUMBER OF RHS =    1
  NUMBER OF FLOATING PT. OPERATIONS =  3.38E+10

  USING THE DIRECT SOLVER WITH  96 PROCESSORS

     CHECK POINT   START OF SOLVER    

     CHECK POINT  END OF SOLVER       

       ELAPSED USER TIME (SEC)      =   14.990    
       ELAPSED SYSTEM TIME (SEC)    =   2.6500    
       ELAPSED TOTAL CPU TIME (SEC) =   17.640    
       ELAPSED WALLCLOCK TIME (SEC) =          0

               CONVERGENCE CHECKS FOR EQUILIBRIUM ITERATION     1


 AVERAGE FORCE                      0.807       TIME AVG. FORCE       0.590    
 LARGEST RESIDUAL FORCE             2.037E-02   AT NODE      10910   DOF  2
   INSTANCE: PART-1-1                                                                        
 LARGEST INCREMENT OF DISP.         2.000E-02   AT NODE      11551   DOF  3
   INSTANCE: PART-1-1                                                                        
 LARGEST CORRECTION TO DISP.        1.353E-04   AT NODE       2798   DOF  3
   INSTANCE: PART-1-1                                                                        
          FORCE     EQUILIBRIUM NOT ACHIEVED WITHIN TOLERANCE.

 AVERAGE MOMENT                      0.00       TIME AVG. MOMENT      8.042E-02
                                                (FROM FORCE     FIELD)
 ALL MOMENT    RESIDUALS ARE ZERO
 LARGEST INCREMENT OF ROTATION     -3.478E-33   AT NODE      11551   DOF  4
   INSTANCE: PART-1-1                                                                        
 LARGEST CORRECTION TO ROTATION     1.110E-33   AT NODE      11551   DOF  4
   INSTANCE: PART-1-1                                                                        
          THERE IS ZERO MOMENT    EVERYWHERE

  NUMBER OF EQUATIONS =     34656     NUMBER OF RHS =    1
[...]
   INSTANCE: PART-1-1                                                                        
 LARGEST INCREMENT OF DISP.         1.894E-03   AT NODE       6415   DOF  3
   INSTANCE: PART-1-1                                                                        
 LARGEST CORRECTION TO DISP.        4.409E-07   AT NODE       6120   DOF  1
   INSTANCE: PART-1-1                                                                        
          THE FORCE     EQUILIBRIUM EQUATIONS HAVE CONVERGED

 AVERAGE MOMENT                      0.00       TIME AVG. MOMENT      0.104    
                                                (FROM FORCE     FIELD)
 ALL MOMENT    RESIDUALS ARE ZERO
 LARGEST INCREMENT OF ROTATION     -1.749E-33   AT NODE      11551   DOF  4
   INSTANCE: PART-1-1                                                                        
 LARGEST CORRECTION TO ROTATION    -3.129E-39   AT NODE      11551   DOF  4
   INSTANCE: PART-1-1                                                                        
          THERE IS ZERO MOMENT    EVERYWHERE
          TIME INCREMENT MAY NOW INCREASE TO    1.374E-04

 ITERATION SUMMARY FOR THE INCREMENT:   4 TOTAL ITERATIONS, OF WHICH
   0 ARE SEVERE DISCONTINUITY ITERATIONS AND  4 ARE EQUILIBRIUM ITERATIONS.

 TIME INCREMENT COMPLETED  9.163E-05,  FRACTION OF STEP COMPLETED  0.714    
 STEP TIME COMPLETED       0.143    ,  TOTAL TIME COMPLETED        0.143    


  INCREMENT   233 STARTS. ATTEMPT NUMBER  1, TIME INCREMENT  1.374E-04

  NUMBER OF EQUATIONS =     34656     NUMBER OF RHS =    1
  NUMBER OF FLOATING PT. OPERATIONS =  3.32E+10

  USING THE DIRECT SOLVER WITH  96 PROCESSORS

     CHECK POINT   START OF SOLVER    

     CHECK POINT  END OF SOLVER       

       ELAPSED USER TIME (SEC)      =   14.530    
       ELAPSED SYSTEM TIME (SEC)    =   3.1800    
       ELAPSED TOTAL CPU TIME (SEC) =   17.710    
       ELAPSED WALLCLOCK TIME (SEC) =          1

               CONVERGENCE CHECKS FOR EQUILIBRIUM ITERATION     1


 AVERAGE FORCE                      0.515       TIME AVG. FORCE       0.729    
 LARGEST RESIDUAL FORCE             0.860       AT NODE       5802   DOF  2
   INSTANCE: PART-1-1                                                                        
 LARGEST INCREMENT OF DISP.         2.836E-03   AT NODE       6415   DOF  3
   INSTANCE: PART-1-1                                                                        
 LARGEST CORRECTION TO DISP.        2.477E-04   AT NODE       5788   DOF  1
   INSTANCE: PART-1-1                                                                        
          FORCE     EQUILIBRIUM NOT ACHIEVED WITHIN TOLERANCE.

 AVERAGE MOMENT                      0.00       TIME AVG. MOMENT      0.104    
                                                (FROM FORCE     FIELD)
 ALL MOMENT    RESIDUALS ARE ZERO
 LARGEST INCREMENT OF ROTATION     -1.740E-33   AT NODE      11551   DOF  4
   INSTANCE: PART-1-1                                                                        
 LARGEST CORRECTION TO ROTATION     8.838E-34   AT NODE      11551   DOF  4
   INSTANCE: PART-1-1                                                                        
          THERE IS ZERO MOMENT    EVERYWHERE

  NUMBER OF EQUATIONS =     34656     NUMBER OF RHS =    1
  NUMBER OF FLOATING PT. OPERATIONS =  3.32E+10

  USING THE DIRECT SOLVER WITH  96 PROCESSORS

     CHECK POINT   START OF SOLVER    

     CHECK POINT  END OF SOLVER       

       ELAPSED USER TIME (SEC)      =   16.920    
       ELAPSED SYSTEM TIME (SEC)    =   2.2200    
       ELAPSED TOTAL CPU TIME (SEC) =   19.140    
       ELAPSED WALLCLOCK TIME (SEC) =          1

               CONVERGENCE CHECKS FOR EQUILIBRIUM ITERATION     2


 AVERAGE FORCE                      0.515       TIME AVG. FORCE       0.729    
 LARGEST RESIDUAL FORCE            -0.135       AT NODE       6131   DOF  1
   INSTANCE: PART-1-1                                                                        
 LARGEST INCREMENT OF DISP.         2.839E-03   AT NODE       6777   DOF  3
   INSTANCE: PART-1-1                                                                        
 LARGEST CORRECTION TO DISP.        4.131E-05   AT NODE       5802   DOF  2
   INSTANCE: PART-1-1                                                                        
          FORCE     EQUILIBRIUM NOT ACHIEVED WITHIN TOLERANCE.

 AVERAGE MOMENT                      0.00       TIME AVG. MOMENT      0.104    
                                                (FROM FORCE     FIELD)
 ALL MOMENT    RESIDUALS ARE ZERO
 LARGEST INCREMENT OF ROTATION     -1.740E-33   AT NODE      11551   DOF  4
   INSTANCE: PART-1-1                                                                        
 LARGEST CORRECTION TO ROTATION     1.318E-37   AT NODE      11551   DOF  4
   INSTANCE: PART-1-1                                                                        
          THERE IS ZERO MOMENT    EVERYWHERE

  NUMBER OF EQUATIONS =     34656     NUMBER OF RHS =    1
  NUMBER OF FLOATING PT. OPERATIONS =  3.32E+10

  USING THE DIRECT SOLVER WITH  96 PROCESSORS

     CHECK POINT   START OF SOLVER    

     CHECK POINT  END OF SOLVER       

       ELAPSED USER TIME (SEC)      =   15.140    
       ELAPSED SYSTEM TIME (SEC)    =   2.3500    
       ELAPSED TOTAL CPU TIME (SEC) =   17.490    
       ELAPSED WALLCLOCK TIME (SEC) =          0

               CONVERGENCE CHECKS FOR EQUILIBRIUM ITERATION     3


 AVERAGE FORCE                      0.515       TIME AVG. FORCE       0.729    
 LARGEST RESIDUAL FORCE             0.121       AT NODE       6131   DOF  1
   INSTANCE: PART-1-1                                                                        
 LARGEST INCREMENT OF DISP.         2.839E-03   AT NODE       6777   DOF  3
   INSTANCE: PART-1-1                                                                        
 LARGEST CORRECTION TO DISP.       -5.505E-06   AT NODE       6131   DOF  1
   INSTANCE: PART-1-1                                                                        
          FORCE     EQUILIBRIUM NOT ACHIEVED WITHIN TOLERANCE.

 AVERAGE MOMENT                      0.00       TIME AVG. MOMENT      0.104    
                                                (FROM FORCE     FIELD)
 ALL MOMENT    RESIDUALS ARE ZERO
 LARGEST INCREMENT OF ROTATION     -1.740E-33   AT NODE      11551   DOF  4
   INSTANCE: PART-1-1                                                                        
 LARGEST CORRECTION TO ROTATION     1.773E-38   AT NODE      11551   DOF  5
   INSTANCE: PART-1-1                                                                        
          THERE IS ZERO MOMENT    EVERYWHERE

  NUMBER OF EQUATIONS =     34656     NUMBER OF RHS =    1
  NUMBER OF FLOATING PT. OPERATIONS =  3.32E+10

  USING THE DIRECT SOLVER WITH  96 PROCESSORS

     CHECK POINT   START OF SOLVER    

     CHECK POINT  END OF SOLVER       

       ELAPSED USER TIME (SEC)      =   15.900    
       ELAPSED SYSTEM TIME (SEC)    =   3.1000    
       ELAPSED TOTAL CPU TIME (SEC) =   19.000    
       ELAPSED WALLCLOCK TIME (SEC) =          0

               CONVERGENCE CHECKS FOR EQUILIBRIUM ITERATION     4


 AVERAGE FORCE                      0.515       TIME AVG. FORCE       0.729    
 LARGEST RESIDUAL FORCE            -0.129       AT NODE       6131   DOF  1
   INSTANCE: PART-1-1                                                                        
 LARGEST INCREMENT OF DISP.         2.839E-03   AT NODE       6777   DOF  3
   INSTANCE: PART-1-1                                                                        
 LARGEST CORRECTION TO DISP.        4.873E-06   AT NODE       6131   DOF  1
   INSTANCE: PART-1-1                                                                        
          FORCE     EQUILIBRIUM NOT ACHIEVED WITHIN TOLERANCE.

 AVERAGE MOMENT                      0.00       TIME AVG. MOMENT      0.104    
                                                (FROM FORCE     FIELD)
 ALL MOMENT    RESIDUALS ARE ZERO
 LARGEST INCREMENT OF ROTATION     -1.740E-33   AT NODE      11551   DOF  4
   INSTANCE: PART-1-1                                                                        
 LARGEST CORRECTION TO ROTATION    -1.358E-38   AT NODE      11551   DOF  5
   INSTANCE: PART-1-1                                                                        
          THERE IS ZERO MOMENT    EVERYWHERE

  NUMBER OF EQUATIONS =     34656     NUMBER OF RHS =    1
  NUMBER OF FLOATING PT. OPERATIONS =  3.32E+10

  USING THE DIRECT SOLVER WITH  96 PROCESSORS

     CHECK POINT   START OF SOLVER    

     CHECK POINT  END OF SOLVER       

       ELAPSED USER TIME (SEC)      =   15.670    
       ELAPSED SYSTEM TIME (SEC)    =   2.0900    
       ELAPSED TOTAL CPU TIME (SEC) =   17.760    
       ELAPSED WALLCLOCK TIME (SEC) =          0

               CONVERGENCE CHECKS FOR EQUILIBRIUM ITERATION     5


 AVERAGE FORCE                      0.515       TIME AVG. FORCE       0.729    
 LARGEST RESIDUAL FORCE             0.122       AT NODE       6131   DOF  1
   INSTANCE: PART-1-1                                                                        
 LARGEST INCREMENT OF DISP.         2.839E-03   AT NODE       6777   DOF  3
   INSTANCE: PART-1-1                                                                        
 LARGEST CORRECTION TO DISP.       -4.943E-06   AT NODE       6131   DOF  1
   INSTANCE: PART-1-1                                                                        
          FORCE     EQUILIBRIUM NOT ACHIEVED WITHIN TOLERANCE.

 AVERAGE MOMENT                      0.00       TIME AVG. MOMENT      0.104    
                                                (FROM FORCE     FIELD)
 ALL MOMENT    RESIDUALS ARE ZERO
 LARGEST INCREMENT OF ROTATION     -1.740E-33   AT NODE      11551   DOF  4
   INSTANCE: PART-1-1                                                                        
 LARGEST CORRECTION TO ROTATION     1.405E-38   AT NODE      11551   DOF  5
   INSTANCE: PART-1-1                                                                        
          THERE IS ZERO MOMENT    EVERYWHERE

  NUMBER OF EQUATIONS =     34656     NUMBER OF RHS =    1
  NUMBER OF FLOATING PT. OPERATIONS =  3.32E+10

  USING THE DIRECT SOLVER WITH  96 PROCESSORS

     CHECK POINT   START OF SOLVER    

     CHECK POINT  END OF SOLVER       

       ELAPSED USER TIME (SEC)      =   16.800    
       ELAPSED SYSTEM TIME (SEC)    =   3.2200    
       ELAPSED TOTAL CPU TIME (SEC) =   20.020    
       ELAPSED WALLCLOCK TIME (SEC) =          0

               CONVERGENCE CHECKS FOR EQUILIBRIUM ITERATION     6


 AVERAGE FORCE                      0.515       TIME AVG. FORCE       0.729    
 LARGEST RESIDUAL FORCE            -0.129       AT NODE       6131   DOF  1
   INSTANCE: PART-1-1                                                                        
 LARGEST INCREMENT OF DISP.         2.839E-03   AT NODE       6777   DOF  3
   INSTANCE: PART-1-1                                                                        
 LARGEST CORRECTION TO DISP.        4.925E-06   AT NODE       6131   DOF  1
   INSTANCE: PART-1-1                                                                        
          FORCE     EQUILIBRIUM NOT ACHIEVED WITHIN TOLERANCE.

 AVERAGE MOMENT                      0.00       TIME AVG. MOMENT      0.104    
                                                (FROM FORCE     FIELD)
 ALL MOMENT    RESIDUALS ARE ZERO
 LARGEST INCREMENT OF ROTATION     -1.740E-33   AT NODE      11551   DOF  4
   INSTANCE: PART-1-1                                                                        
 LARGEST CORRECTION TO ROTATION    -1.385E-38   AT NODE      11551   DOF  5
   INSTANCE: PART-1-1                                                                        
          THERE IS ZERO MOMENT    EVERYWHERE
 

 ***NOTE: THE SOLUTION APPEARS TO BE DIVERGING. CONVERGENCE IS JUDGED UNLIKELY.


  INCREMENT   233 STARTS. ATTEMPT NUMBER  2, TIME INCREMENT  3.436E-05

  NUMBER OF EQUATIONS =     34656     NUMBER OF RHS =    1
  NUMBER OF FLOATING PT. OPERATIONS =  3.32E+10

  USING THE DIRECT SOLVER WITH  96 PROCESSORS

     CHECK POINT   START OF SOLVER    

     CHECK POINT  END OF SOLVER       

       ELAPSED USER TIME (SEC)      =   14.340    
       ELAPSED SYSTEM TIME (SEC)    =   2.9700    
       ELAPSED TOTAL CPU TIME (SEC) =   17.310    
       ELAPSED WALLCLOCK TIME (SEC) =          0

               CONVERGENCE CHECKS FOR EQUILIBRIUM ITERATION     1


 AVERAGE FORCE                      0.514       TIME AVG. FORCE       0.729    
 LARGEST RESIDUAL FORCE             0.552       AT NODE       6133   DOF  2
   INSTANCE: PART-1-1                                                                        
 LARGEST INCREMENT OF DISP.         7.715E-04   AT NODE       6118   DOF  3
   INSTANCE: PART-1-1                                                                        
 LARGEST CORRECTION TO DISP.       -2.158E-04   AT NODE       6117   DOF  2
   INSTANCE: PART-1-1                                                                        
          FORCE     EQUILIBRIUM NOT ACHIEVED WITHIN TOLERANCE.

 AVERAGE MOMENT                      0.00       TIME AVG. MOMENT      0.104    
                                                (FROM FORCE     FIELD)
 ALL MOMENT    RESIDUALS ARE ZERO
 LARGEST INCREMENT OF ROTATION     -1.745E-33   AT NODE      11551   DOF  4
   INSTANCE: PART-1-1                                                                        
 LARGEST CORRECTION TO ROTATION    -1.089E-33   AT NODE      11551   DOF  4
   INSTANCE: PART-1-1                                                                        
          THERE IS ZERO MOMENT    EVERYWHERE

  NUMBER OF EQUATIONS =     34656     NUMBER OF RHS =    1
  NUMBER OF FLOATING PT. OPERATIONS =  3.32E+10

  USING THE DIRECT SOLVER WITH  96 PROCESSORS

     CHECK POINT   START OF SOLVER    

     CHECK POINT  END OF SOLVER       

       ELAPSED USER TIME (SEC)      =   16.590    
       ELAPSED SYSTEM TIME (SEC)    =   2.4600    
       ELAPSED TOTAL CPU TIME (SEC) =   19.050    
       ELAPSED WALLCLOCK TIME (SEC) =          1

               CONVERGENCE CHECKS FOR EQUILIBRIUM ITERATION     2


 AVERAGE FORCE                      0.514       TIME AVG. FORCE       0.729    
 LARGEST RESIDUAL FORCE             4.692E-02   AT NODE       5803   DOF  2
   INSTANCE: PART-1-1                                                                        
 LARGEST INCREMENT OF DISP.         7.854E-04   AT NODE       6118   DOF  3
   INSTANCE: PART-1-1                                                                        
 LARGEST CORRECTION TO DISP.        1.870E-05   AT NODE       5803   DOF  2
   INSTANCE: PART-1-1                                                                        
          FORCE     EQUILIBRIUM NOT ACHIEVED WITHIN TOLERANCE.

 AVERAGE MOMENT                      0.00       TIME AVG. MOMENT      0.104    
                                                (FROM FORCE     FIELD)
 ALL MOMENT    RESIDUALS ARE ZERO
 LARGEST INCREMENT OF ROTATION     -1.745E-33   AT NODE      11551   DOF  4
   INSTANCE: PART-1-1                                                                        
 LARGEST CORRECTION TO ROTATION     3.351E-37   AT NODE      11551   DOF  4
   INSTANCE: PART-1-1                                                                        
          THERE IS ZERO MOMENT    EVERYWHERE

  NUMBER OF EQUATIONS =     34656     NUMBER OF RHS =    1
  NUMBER OF FLOATING PT. OPERATIONS =  3.32E+10

  USING THE DIRECT SOLVER WITH  96 PROCESSORS

     CHECK POINT   START OF SOLVER    

     CHECK POINT  END OF SOLVER       

       ELAPSED USER TIME (SEC)      =   15.240    
       ELAPSED SYSTEM TIME (SEC)    =   2.2300    
       ELAPSED TOTAL CPU TIME (SEC) =   17.470    
       ELAPSED WALLCLOCK TIME (SEC) =          1

               CONVERGENCE CHECKS FOR EQUILIBRIUM ITERATION     3


 AVERAGE FORCE                      0.514       TIME AVG. FORCE       0.729    
 LARGEST RESIDUAL FORCE            -4.830E-03   AT NODE       6069   DOF  2
   INSTANCE: PART-1-1                                                                        
 LARGEST INCREMENT OF DISP.         7.869E-04   AT NODE       6118   DOF  3
   INSTANCE: PART-1-1                                                                        
 LARGEST CORRECTION TO DISP.        1.788E-06   AT NODE       5803   DOF  2
   INSTANCE: PART-1-1                                                                        
          FORCE     EQUILIBRIUM NOT ACHIEVED WITHIN TOLERANCE.

 AVERAGE MOMENT                      0.00       TIME AVG. MOMENT      0.104    
                                                (FROM FORCE     FIELD)
 ALL MOMENT    RESIDUALS ARE ZERO
 LARGEST INCREMENT OF ROTATION     -1.745E-33   AT NODE      11551   DOF  4
   INSTANCE: PART-1-1                                                                        
 LARGEST CORRECTION TO ROTATION     3.920E-38   AT NODE      11551   DOF  4
   INSTANCE: PART-1-1                                                                        
          THERE IS ZERO MOMENT    EVERYWHERE

  NUMBER OF EQUATIONS =     34656     NUMBER OF RHS =    1
  NUMBER OF FLOATING PT. OPERATIONS =  3.32E+10

  USING THE DIRECT SOLVER WITH  96 PROCESSORS

     CHECK POINT   START OF SOLVER    

     CHECK POINT  END OF SOLVER       

       ELAPSED USER TIME (SEC)      =   14.430    
       ELAPSED SYSTEM TIME (SEC)    =   2.2100    
       ELAPSED TOTAL CPU TIME (SEC) =   16.640    
       ELAPSED WALLCLOCK TIME (SEC) =          0

               CONVERGENCE CHECKS FOR EQUILIBRIUM ITERATION     4


 AVERAGE FORCE                      0.514       TIME AVG. FORCE       0.729    
 LARGEST RESIDUAL FORCE             2.196E-03   AT NODE       5791   DOF  2
   INSTANCE: PART-1-1                                                                        
 LARGEST INCREMENT OF DISP.         7.870E-04   AT NODE       6118   DOF  3
   INSTANCE: PART-1-1                                                                        
 LARGEST CORRECTION TO DISP.        1.750E-07   AT NODE       5803   DOF  2
   INSTANCE: PART-1-1                                                                        
          THE FORCE     EQUILIBRIUM EQUATIONS HAVE CONVERGED

 AVERAGE MOMENT                      0.00       TIME AVG. MOMENT      0.104    
                                                (FROM FORCE     FIELD)
 ALL MOMENT    RESIDUALS ARE ZERO
 LARGEST INCREMENT OF ROTATION     -1.745E-33   AT NODE      11551   DOF  4
   INSTANCE: PART-1-1                                                                        
 LARGEST CORRECTION TO ROTATION     4.875E-39   AT NODE      11551   DOF  4
   INSTANCE: PART-1-1                                                                        
          THERE IS ZERO MOMENT    EVERYWHERE
          TIME INCREMENT MAY NOW INCREASE TO    5.154E-05

 ITERATION SUMMARY FOR THE INCREMENT:   4 TOTAL ITERATIONS, OF WHICH
   0 ARE SEVERE DISCONTINUITY ITERATIONS AND  4 ARE EQUILIBRIUM ITERATIONS.

 TIME INCREMENT COMPLETED  3.436E-05,  FRACTION OF STEP COMPLETED  0.714    
 STEP TIME COMPLETED       0.143    ,  TOTAL TIME COMPLETED        0.143    


  INCREMENT   234 STARTS. ATTEMPT NUMBER  1, TIME INCREMENT  5.154E-05

  NUMBER OF EQUATIONS =     34656     NUMBER OF RHS =    1
  NUMBER OF FLOATING PT. OPERATIONS =  3.32E+10

  USING THE DIRECT SOLVER WITH  96 PROCESSORS

     CHECK POINT   START OF SOLVER    

     CHECK POINT  END OF SOLVER       

       ELAPSED USER TIME (SEC)      =   16.360    
       ELAPSED SYSTEM TIME (SEC)    =   1.7400    
       ELAPSED TOTAL CPU TIME (SEC) =   18.100    
       ELAPSED WALLCLOCK TIME (SEC) =          1

---------- RUNTIME EXCEPTION HAS OCCURED ----------

ABAQUS/standard rank 0 terminated by signal 6 (Aborted)

