1

   Abaqus 2020                                  Date 05-Jan-2023   Time 15:56:08
   For use by Supplied by Team-SolidSQUAD under license from Dassault Systemes or its subsidiary.

  BASIC VERIFICATION OF USER SUBROUTINE DISP                                     
  RESPONSE AT NODES 2 AND 5, 3 AND 6, 4 AND 7 SHOULD BE IDENTICAL, RESPECTIVELY  
 STEP    1     INCREMENT     1     STEP TIME    0.00    


                        S T E P       1     D Y N A M I C   A N A L Y S I S - I M P L I C I T  I N T E G R A T I O N


           RESPONSE AT NODES 2 AND 5, 3 AND 6, 4 AND 7 SHOULD BE IDENTICAL, RESPECTIVELY  

          DYNAMIC APPLICATION PACKED SCHEME IS                 TRANSIENT FIDELITY  
          HILBER-HUGHES-TAYLOR (HHT) TIME INTEGRATOR IS USED

     AUTOMATIC TIME CONTROL WITH -
          A SUGGESTED INITIAL TIME INCREMENT OF                0.500    
          AND A TOTAL TIME PERIOD OF                            10.0    
          THE MINIMUM TIME INCREMENT ALLOWED IS                1.000E-04
          THE MAXIMUM TIME INCREMENT ALLOWED IS                0.500    
          SCALE FACTOR ON TIME AVERAGE FORCE FOR HALF-
           -INCREMENT RESIDUAL COMPUTATIONS IS                 1.000E+03

          HILBER-HUGHES-TAYLOR METHOD PARAMETERS:  ALPHA   IS  -5.000000E-02
                                                   BETA    IS   0.275625    
                                                   GAMMA   IS   0.550000    
          SINGULAR MASS TREATMENT TYPE IS                     ERROR
          CONSERVATIVE TIME INCREMENTATION IS USED
          STEP AMPLITUDE IS                                    STEP

 CONVERGENCE TOLERANCE PARAMETERS FOR FORCE    
     CRITERION FOR RESIDUAL FORCE     FOR A NONLINEAR PROBLEM          5.000E-03
     CRITERION FOR DISP.    CORRECTION IN A NONLINEAR PROBLEM          1.000E-02
     INITIAL VALUE OF TIME AVERAGE FORCE                               1.000E-02
     AVERAGE FORCE     IS TIME AVERAGE FORCE    
     ALTERNATE CRIT. FOR RESIDUAL FORCE     FOR A NONLINEAR PROBLEM    2.000E-02
     CRITERION FOR ZERO FORCE     RELATIVE TO TIME AVRG. FORCE         1.000E-05
     CRITERION FOR RESIDUAL FORCE     WHEN THERE IS ZERO FLUX          1.000E-05
     CRITERION FOR DISP.    CORRECTION WHEN THERE IS ZERO FLUX         1.000E-03
     CRITERION FOR RESIDUAL FORCE     FOR A LINEAR INCREMENT           1.000E-08
     FIELD CONVERSION RATIO                                             1.00    
     CRITERION FOR ZERO FORCE     REL. TO TIME AVRG. MAX. FORCE        1.000E-05
     CRITERION FOR ZERO DISP.    RELATIVE TO CHARACTERISTIC LENGTH     1.000E-08

     VOLUMETRIC STRAIN COMPATIBILITY TOLERANCE FOR HYBRID SOLIDS       1.000E-05
     AXIAL STRAIN COMPATIBILITY TOLERANCE FOR HYBRID BEAMS             1.000E-05
     TRANS. SHEAR STRAIN COMPATIBILITY TOLERANCE FOR HYBRID BEAMS      1.000E-05
     SOFT CONTACT CONSTRAINT COMPATIBILITY TOLERANCE FOR P>P0          5.000E-03
     SOFT CONTACT CONSTRAINT COMPATIBILITY TOLERANCE FOR P=0.0         0.100    
     CONTACT FORCE ERROR TOLERANCE FOR CONVERT SDI=YES                 1.00    
     DISPLACEMENT COMPATIBILITY TOLERANCE FOR DCOUP ELEMENTS           1.000E-05
     ROTATION COMPATIBILITY TOLERANCE FOR DCOUP ELEMENTS               1.000E-05

 EQUILIBRIUM WILL BE CHECKED FOR SEVERE DISCONTINUITY ITERATIONS

 TIME INCREMENTATION CONTROL PARAMETERS:
     FIRST EQUILIBRIUM ITERATION FOR CONSECUTIVE DIVERGENCE CHECK              4
     EQUILIBRIUM ITERATION AT WHICH LOG. CONVERGENCE RATE CHECK BEGINS         8
     EQUILIBRIUM ITERATION AFTER WHICH ALTERNATE RESIDUAL IS USED              9
     MAXIMUM EQUILIBRIUM ITERATIONS ALLOWED                                   16
     EQUILIBRIUM ITERATION COUNT FOR CUT-BACK IN NEXT INCREMENT               10
     MAXIMUM EQUILIB. ITERS IN TWO INCREMENTS FOR TIME INCREMENT INCREASE      4
     MAXIMUM ITERATIONS FOR SEVERE DISCONTINUITIES                            50
     MAXIMUM ATTEMPTS ALLOWED IN AN INCREMENT                                  5
     MAXIMUM DISCON. ITERS IN TWO INCREMENTS FOR TIME INCREMENT INCREASE      50
     MAXIMUM CONTACT AUGMENTATIONS FOR *SURFACE BEHAVIOR,AUGMENTED LAGRANGE   50
     CONSECUTIVE INCS MEETING TIME INTEG. TOL. FOR TIME INC. INCREASE          3
     CUT-BACK FACTOR AFTER DIVERGENCE                                 0.2500    
     CUT-BACK FACTOR FOR TOO SLOW CONVERGENCE                         0.5000    
     CUT-BACK FACTOR AFTER TOO MANY EQUILIBRIUM ITERATIONS            0.7500    
     CUT-BACK FACTOR AFTER TOO MANY SEVERE DISCONTINUITY ITERATIONS   0.2500    
     CUT-BACK FACTOR AFTER PROBLEMS IN ELEMENT ASSEMBLY               0.2500    
     INCREASE FACTOR AFTER TWO INCREMENTS THAT CONVERGE QUICKLY        1.500    
     MAX. TIME INCREMENT INCREASE FACTOR ALLOWED                       1.500    
     MAX. TIME INCREMENT INCREASE FACTOR ALLOWED (DYNAMICS)            1.250    
     MAX. TIME INCREMENT INCREASE FACTOR ALLOWED (DIFFUSION)           2.000    
     MINIMUM TIME INCREMENT RATIO FOR EXTRAPOLATION TO OCCUR          0.1000    
     CUT-BACK FACTOR WHEN TIME INTEGRATION ACCURACY TOL. EXCEEDED     0.8500    
     MAX. RATIO OF TIME INTEG. MEASURE TO TOL. FOR TIME INC. INCREASE 0.7500    
     INCREASE FACTOR FOR TIME INCREMENT WHEN POSSIBLE                 0.8000    
     MIN. TIME INC. INCREASE FACTOR IN LINEAR TRANSIENT PROBLEMS      0.9500    
     MAX. RATIO OF TIME INCREMENT TO STABILITY LIMIT                   1.000    
     FRACTION OF STABILITY LIMIT FOR NEW TIME INCREMENT               0.9500    
     TIME INCREMENT INCREASE FACTOR BEFORE A TIME POINT                1.000    
     GLOBAL STABILIZATION CONTROL IS NOT USED

          PRINT OF INCREMENT NUMBER, TIME, ETC., EVERY    1  INCREMENTS

     RESTART FILE WILL BE WRITTEN EVERY     1  INCREMENTS

     THE MAXIMUM NUMBER OF INCREMENTS IN THIS STEP IS                     100

     VELOCITY-BASED PARABOLIC EXTRAPOLATION WILL BE USED

     CHARACTERISTIC ELEMENT LENGTH      1.00    

     DETAILS REGARDING ACTUAL SOLUTION WAVEFRONT REQUESTED

     DETAILED OUTPUT OF DIAGNOSTICS TO DATABASE REQUESTED

     PRINT OF INCREMENT NUMBER, TIME, ETC., TO THE MESSAGE FILE EVERY     1  INCREMENTS

     ELEMENT OPERATIONS WILL BE CARRIED OUT IN PARALLEL USING  10 PROCESSORS

     PARALLEL CONTACT TRACKING ENABLED


     COLLECTING MODEL CONSTRAINT INFORMATION FOR OVERCONSTRAINT CHECKS

     COLLECTING STEP CONSTRAINT INFORMATION FOR OVERCONSTRAINT CHECKS

  NUMBER OF EQUATIONS =        21     NUMBER OF RHS =    1
  NUMBER OF FLOATING PT. OPERATIONS =  7.10E+02

  USING THE DIRECT SOLVER WITH  10 PROCESSORS

     CHECK POINT   START OF SOLVER    

     CHECK POINT  END OF SOLVER       

       ELAPSED USER TIME (SEC)      =  6.00000E-02
       ELAPSED SYSTEM TIME (SEC)    =  1.00000E-02
       ELAPSED TOTAL CPU TIME (SEC) =  7.00000E-02
       ELAPSED WALLCLOCK TIME (SEC) =          0

  NUMBER OF EQUATIONS =        21     NUMBER OF RHS =    1
  NUMBER OF FLOATING PT. OPERATIONS =  7.10E+02

  USING THE DIRECT SOLVER WITH  10 PROCESSORS

     CHECK POINT   START OF SOLVER    

     CHECK POINT  END OF SOLVER       

       ELAPSED USER TIME (SEC)      =  4.00000E-02
       ELAPSED SYSTEM TIME (SEC)    =  1.00000E-02
       ELAPSED TOTAL CPU TIME (SEC) =  5.00000E-02
       ELAPSED WALLCLOCK TIME (SEC) =          0


  INCREMENT     1 STARTS. ATTEMPT NUMBER  1, TIME INCREMENT  0.500    
 
     INITIAL ELEMENT LOAD BALANCE
            PROCESS    1   THREAD     NUMBER OF ELEMENTS
                              1            1
                              2            1
                              3            1
                              4            0
                              5            1
                              6            1
                              7            0
                              8            0
                              9            1
                             10            0

  NUMBER OF EQUATIONS =        21     NUMBER OF RHS =    1
  NUMBER OF FLOATING PT. OPERATIONS =  7.10E+02

  USING THE DIRECT SOLVER WITH  10 PROCESSORS

     CHECK POINT   START OF SOLVER    

     CHECK POINT  END OF SOLVER       

       ELAPSED USER TIME (SEC)      =  4.00000E-02
       ELAPSED SYSTEM TIME (SEC)    =  1.00000E-02
       ELAPSED TOTAL CPU TIME (SEC) =  5.00000E-02
       ELAPSED WALLCLOCK TIME (SEC) =          0

               CONVERGENCE CHECKS FOR EQUILIBRIUM ITERATION     1


 AVERAGE FORCE                      7.037E+05   TIME AVG. FORCE       7.037E+05
 ALL FORCE     RESIDUALS ARE ZERO
 LARGEST INCREMENT OF DISP.         0.728       AT NODE          2   DOF  1
 LARGEST CORRECTION TO DISP.        0.728       AT NODE          2   DOF  1
          THE FORCE     EQUILIBRIUM RESPONSE WAS LINEAR IN THIS INCREMENT

  MAXIMUM HALF-INCREMENT FORCE RESIDUAL IS    0.00     AND OCCURS AT NODE          0

 ITERATION SUMMARY FOR THE INCREMENT:   1 TOTAL ITERATIONS, OF WHICH
   0 ARE SEVERE DISCONTINUITY ITERATIONS AND  1 ARE EQUILIBRIUM ITERATIONS.

 TIME INCREMENT COMPLETED  0.500    ,  FRACTION OF STEP COMPLETED  5.000E-02
 STEP TIME COMPLETED       0.500    ,  TOTAL TIME COMPLETED        0.500    

     RESTART INFORMATION WRITTEN IN STEP   1  AFTER INCREMENT     1


  INCREMENT     2 STARTS. ATTEMPT NUMBER  1, TIME INCREMENT  0.500    

  NUMBER OF EQUATIONS =        21     NUMBER OF RHS =    1
  NUMBER OF FLOATING PT. OPERATIONS =  7.10E+02

  USING THE DIRECT SOLVER WITH  10 PROCESSORS

     CHECK POINT   START OF SOLVER    

     CHECK POINT  END OF SOLVER       

       ELAPSED USER TIME (SEC)      =  2.00000E-02
       ELAPSED SYSTEM TIME (SEC)    =   0.0000    
       ELAPSED TOTAL CPU TIME (SEC) =  2.00000E-02
       ELAPSED WALLCLOCK TIME (SEC) =          0

               CONVERGENCE CHECKS FOR EQUILIBRIUM ITERATION     1


 AVERAGE FORCE                      1.389E+06   TIME AVG. FORCE       1.046E+06
 ALL FORCE     RESIDUALS ARE ZERO
 LARGEST INCREMENT OF DISP.         0.418       AT NODE          3   DOF  1
 LARGEST CORRECTION TO DISP.        0.498       AT NODE          5   DOF  1
          THE FORCE     EQUILIBRIUM RESPONSE WAS LINEAR IN THIS INCREMENT

  MAXIMUM HALF-INCREMENT FORCE RESIDUAL IS    0.00     AND OCCURS AT NODE          0

 ITERATION SUMMARY FOR THE INCREMENT:   1 TOTAL ITERATIONS, OF WHICH
   0 ARE SEVERE DISCONTINUITY ITERATIONS AND  1 ARE EQUILIBRIUM ITERATIONS.

 TIME INCREMENT COMPLETED  0.500    ,  FRACTION OF STEP COMPLETED  0.100    
 STEP TIME COMPLETED        1.00    ,  TOTAL TIME COMPLETED         1.00    

     RESTART INFORMATION WRITTEN IN STEP   1  AFTER INCREMENT     2


  INCREMENT     3 STARTS. ATTEMPT NUMBER  1, TIME INCREMENT  0.500    

  NUMBER OF EQUATIONS =        21     NUMBER OF RHS =    1
  NUMBER OF FLOATING PT. OPERATIONS =  7.10E+02

  USING THE DIRECT SOLVER WITH  10 PROCESSORS

     CHECK POINT   START OF SOLVER    

     CHECK POINT  END OF SOLVER       

       ELAPSED USER TIME (SEC)      =  2.00000E-02
       ELAPSED SYSTEM TIME (SEC)    =  2.00000E-02
       ELAPSED TOTAL CPU TIME (SEC) =  4.00000E-02
       ELAPSED WALLCLOCK TIME (SEC) =          0

               CONVERGENCE CHECKS FOR EQUILIBRIUM ITERATION     1


 AVERAGE FORCE                      1.264E+06   TIME AVG. FORCE       1.119E+06
 ALL FORCE     RESIDUALS ARE ZERO
 LARGEST INCREMENT OF DISP.         0.517       AT NODE          3   DOF  1
 LARGEST CORRECTION TO DISP.        1.663E-02   AT NODE          4   DOF  1
          THE FORCE     EQUILIBRIUM RESPONSE WAS LINEAR IN THIS INCREMENT

  MAXIMUM HALF-INCREMENT FORCE RESIDUAL IS    0.00     AND OCCURS AT NODE          0

 ITERATION SUMMARY FOR THE INCREMENT:   1 TOTAL ITERATIONS, OF WHICH
   0 ARE SEVERE DISCONTINUITY ITERATIONS AND  1 ARE EQUILIBRIUM ITERATIONS.

 TIME INCREMENT COMPLETED  0.500    ,  FRACTION OF STEP COMPLETED  0.150    
 STEP TIME COMPLETED        1.50    ,  TOTAL TIME COMPLETED         1.50    

     RESTART INFORMATION WRITTEN IN STEP   1  AFTER INCREMENT     3


  INCREMENT     4 STARTS. ATTEMPT NUMBER  1, TIME INCREMENT  0.500    

  NUMBER OF EQUATIONS =        21     NUMBER OF RHS =    1
  NUMBER OF FLOATING PT. OPERATIONS =  7.10E+02

  USING THE DIRECT SOLVER WITH  10 PROCESSORS

     CHECK POINT   START OF SOLVER    

     CHECK POINT  END OF SOLVER       

       ELAPSED USER TIME (SEC)      =  3.00000E-02
       ELAPSED SYSTEM TIME (SEC)    =   0.0000    
       ELAPSED TOTAL CPU TIME (SEC) =  3.00000E-02
       ELAPSED WALLCLOCK TIME (SEC) =          0

               CONVERGENCE CHECKS FOR EQUILIBRIUM ITERATION     1


 AVERAGE FORCE                      1.617E+06   TIME AVG. FORCE       1.243E+06
 ALL FORCE     RESIDUALS ARE ZERO
 LARGEST INCREMENT OF DISP.         0.769       AT NODE          4   DOF  1
 LARGEST CORRECTION TO DISP.        1.451E-02   AT NODE          4   DOF  1
          THE FORCE     EQUILIBRIUM RESPONSE WAS LINEAR IN THIS INCREMENT

  MAXIMUM HALF-INCREMENT FORCE RESIDUAL IS    0.00     AND OCCURS AT NODE          0

 ITERATION SUMMARY FOR THE INCREMENT:   1 TOTAL ITERATIONS, OF WHICH
   0 ARE SEVERE DISCONTINUITY ITERATIONS AND  1 ARE EQUILIBRIUM ITERATIONS.

 TIME INCREMENT COMPLETED  0.500    ,  FRACTION OF STEP COMPLETED  0.200    
 STEP TIME COMPLETED        2.00    ,  TOTAL TIME COMPLETED         2.00    

     RESTART INFORMATION WRITTEN IN STEP   1  AFTER INCREMENT     4


  INCREMENT     5 STARTS. ATTEMPT NUMBER  1, TIME INCREMENT  0.500    

  NUMBER OF EQUATIONS =        21     NUMBER OF RHS =    1
  NUMBER OF FLOATING PT. OPERATIONS =  7.10E+02

  USING THE DIRECT SOLVER WITH  10 PROCESSORS

     CHECK POINT   START OF SOLVER    

     CHECK POINT  END OF SOLVER       

       ELAPSED USER TIME (SEC)      =  3.00000E-02
       ELAPSED SYSTEM TIME (SEC)    =   0.0000    
       ELAPSED TOTAL CPU TIME (SEC) =  3.00000E-02
       ELAPSED WALLCLOCK TIME (SEC) =          0

               CONVERGENCE CHECKS FOR EQUILIBRIUM ITERATION     1


 AVERAGE FORCE                      2.596E+06   TIME AVG. FORCE       1.514E+06
 ALL FORCE     RESIDUALS ARE ZERO
 LARGEST INCREMENT OF DISP.          1.09       AT NODE          4   DOF  1
 LARGEST CORRECTION TO DISP.        1.202E-02   AT NODE          4   DOF  1
          THE FORCE     EQUILIBRIUM RESPONSE WAS LINEAR IN THIS INCREMENT

  MAXIMUM HALF-INCREMENT FORCE RESIDUAL IS    0.00     AND OCCURS AT NODE          0

 ITERATION SUMMARY FOR THE INCREMENT:   1 TOTAL ITERATIONS, OF WHICH
   0 ARE SEVERE DISCONTINUITY ITERATIONS AND  1 ARE EQUILIBRIUM ITERATIONS.

 TIME INCREMENT COMPLETED  0.500    ,  FRACTION OF STEP COMPLETED  0.250    
 STEP TIME COMPLETED        2.50    ,  TOTAL TIME COMPLETED         2.50    

     RESTART INFORMATION WRITTEN IN STEP   1  AFTER INCREMENT     5


  INCREMENT     6 STARTS. ATTEMPT NUMBER  1, TIME INCREMENT  0.500    

  NUMBER OF EQUATIONS =        21     NUMBER OF RHS =    1
  NUMBER OF FLOATING PT. OPERATIONS =  7.10E+02

  USING THE DIRECT SOLVER WITH  10 PROCESSORS

     CHECK POINT   START OF SOLVER    

     CHECK POINT  END OF SOLVER       

       ELAPSED USER TIME (SEC)      =  3.00000E-02
       ELAPSED SYSTEM TIME (SEC)    =   0.0000    
       ELAPSED TOTAL CPU TIME (SEC) =  3.00000E-02
       ELAPSED WALLCLOCK TIME (SEC) =          0

               CONVERGENCE CHECKS FOR EQUILIBRIUM ITERATION     1


 AVERAGE FORCE                      4.668E+06   TIME AVG. FORCE       2.040E+06
 ALL FORCE     RESIDUALS ARE ZERO
 LARGEST INCREMENT OF DISP.          1.44       AT NODE          4   DOF  1
 LARGEST CORRECTION TO DISP.        9.245E-03   AT NODE          7   DOF  1
          THE FORCE     EQUILIBRIUM RESPONSE WAS LINEAR IN THIS INCREMENT

  MAXIMUM HALF-INCREMENT FORCE RESIDUAL IS    0.00     AND OCCURS AT NODE          0

 ITERATION SUMMARY FOR THE INCREMENT:   1 TOTAL ITERATIONS, OF WHICH
   0 ARE SEVERE DISCONTINUITY ITERATIONS AND  1 ARE EQUILIBRIUM ITERATIONS.

 TIME INCREMENT COMPLETED  0.500    ,  FRACTION OF STEP COMPLETED  0.300    
 STEP TIME COMPLETED        3.00    ,  TOTAL TIME COMPLETED         3.00    

     RESTART INFORMATION WRITTEN IN STEP   1  AFTER INCREMENT     6


  INCREMENT     7 STARTS. ATTEMPT NUMBER  1, TIME INCREMENT  0.500    

  NUMBER OF EQUATIONS =        21     NUMBER OF RHS =    1
  NUMBER OF FLOATING PT. OPERATIONS =  7.10E+02

  USING THE DIRECT SOLVER WITH  10 PROCESSORS

     CHECK POINT   START OF SOLVER    

     CHECK POINT  END OF SOLVER       

       ELAPSED USER TIME (SEC)      =  3.00000E-02
       ELAPSED SYSTEM TIME (SEC)    =  1.00000E-02
       ELAPSED TOTAL CPU TIME (SEC) =  4.00000E-02
       ELAPSED WALLCLOCK TIME (SEC) =          0

               CONVERGENCE CHECKS FOR EQUILIBRIUM ITERATION     1


 AVERAGE FORCE                      7.340E+06   TIME AVG. FORCE       2.797E+06
 ALL FORCE     RESIDUALS ARE ZERO
 LARGEST INCREMENT OF DISP.          1.82       AT NODE          4   DOF  1
 LARGEST CORRECTION TO DISP.        6.238E-03   AT NODE          7   DOF  1
          THE FORCE     EQUILIBRIUM RESPONSE WAS LINEAR IN THIS INCREMENT

  MAXIMUM HALF-INCREMENT FORCE RESIDUAL IS    0.00     AND OCCURS AT NODE          0

 ITERATION SUMMARY FOR THE INCREMENT:   1 TOTAL ITERATIONS, OF WHICH
   0 ARE SEVERE DISCONTINUITY ITERATIONS AND  1 ARE EQUILIBRIUM ITERATIONS.

 TIME INCREMENT COMPLETED  0.500    ,  FRACTION OF STEP COMPLETED  0.350    
 STEP TIME COMPLETED        3.50    ,  TOTAL TIME COMPLETED         3.50    

     RESTART INFORMATION WRITTEN IN STEP   1  AFTER INCREMENT     7


  INCREMENT     8 STARTS. ATTEMPT NUMBER  1, TIME INCREMENT  0.500    

  NUMBER OF EQUATIONS =        21     NUMBER OF RHS =    1
  NUMBER OF FLOATING PT. OPERATIONS =  7.10E+02

  USING THE DIRECT SOLVER WITH  10 PROCESSORS

     CHECK POINT   START OF SOLVER    

     CHECK POINT  END OF SOLVER       

       ELAPSED USER TIME (SEC)      =  3.00000E-02
       ELAPSED SYSTEM TIME (SEC)    =   0.0000    
       ELAPSED TOTAL CPU TIME (SEC) =  3.00000E-02
       ELAPSED WALLCLOCK TIME (SEC) =          0

               CONVERGENCE CHECKS FOR EQUILIBRIUM ITERATION     1


 AVERAGE FORCE                      1.064E+07   TIME AVG. FORCE       3.777E+06
 ALL FORCE     RESIDUALS ARE ZERO
 LARGEST INCREMENT OF DISP.          2.21       AT NODE          4   DOF  1
 LARGEST CORRECTION TO DISP.       -6.422E-03   AT NODE          3   DOF  1
          THE FORCE     EQUILIBRIUM RESPONSE WAS LINEAR IN THIS INCREMENT

  MAXIMUM HALF-INCREMENT FORCE RESIDUAL IS    0.00     AND OCCURS AT NODE          0

 ITERATION SUMMARY FOR THE INCREMENT:   1 TOTAL ITERATIONS, OF WHICH
   0 ARE SEVERE DISCONTINUITY ITERATIONS AND  1 ARE EQUILIBRIUM ITERATIONS.

 TIME INCREMENT COMPLETED  0.500    ,  FRACTION OF STEP COMPLETED  0.400    
 STEP TIME COMPLETED        4.00    ,  TOTAL TIME COMPLETED         4.00    

     RESTART INFORMATION WRITTEN IN STEP   1  AFTER INCREMENT     8


  INCREMENT     9 STARTS. ATTEMPT NUMBER  1, TIME INCREMENT  0.500    

  NUMBER OF EQUATIONS =        21     NUMBER OF RHS =    1
  NUMBER OF FLOATING PT. OPERATIONS =  7.10E+02

  USING THE DIRECT SOLVER WITH  10 PROCESSORS

     CHECK POINT   START OF SOLVER    

     CHECK POINT  END OF SOLVER       

       ELAPSED USER TIME (SEC)      =  2.00000E-02
       ELAPSED SYSTEM TIME (SEC)    =  1.00000E-02
       ELAPSED TOTAL CPU TIME (SEC) =  3.00000E-02
       ELAPSED WALLCLOCK TIME (SEC) =          0

               CONVERGENCE CHECKS FOR EQUILIBRIUM ITERATION     1


 AVERAGE FORCE                      1.456E+07   TIME AVG. FORCE       4.975E+06
 ALL FORCE     RESIDUALS ARE ZERO
 LARGEST INCREMENT OF DISP.          2.60       AT NODE          4   DOF  1
 LARGEST CORRECTION TO DISP.       -6.494E-03   AT NODE          3   DOF  1
          THE FORCE     EQUILIBRIUM RESPONSE WAS LINEAR IN THIS INCREMENT

  MAXIMUM HALF-INCREMENT FORCE RESIDUAL IS    0.00     AND OCCURS AT NODE          0

 ITERATION SUMMARY FOR THE INCREMENT:   1 TOTAL ITERATIONS, OF WHICH
   0 ARE SEVERE DISCONTINUITY ITERATIONS AND  1 ARE EQUILIBRIUM ITERATIONS.

 TIME INCREMENT COMPLETED  0.500    ,  FRACTION OF STEP COMPLETED  0.450    
 STEP TIME COMPLETED        4.50    ,  TOTAL TIME COMPLETED         4.50    

     RESTART INFORMATION WRITTEN IN STEP   1  AFTER INCREMENT     9


  INCREMENT    10 STARTS. ATTEMPT NUMBER  1, TIME INCREMENT  0.500    

  NUMBER OF EQUATIONS =        21     NUMBER OF RHS =    1
  NUMBER OF FLOATING PT. OPERATIONS =  7.10E+02

  USING THE DIRECT SOLVER WITH  10 PROCESSORS

     CHECK POINT   START OF SOLVER    

     CHECK POINT  END OF SOLVER       

       ELAPSED USER TIME (SEC)      =  3.00000E-02
       ELAPSED SYSTEM TIME (SEC)    =   0.0000    
       ELAPSED TOTAL CPU TIME (SEC) =  3.00000E-02
       ELAPSED WALLCLOCK TIME (SEC) =          0

               CONVERGENCE CHECKS FOR EQUILIBRIUM ITERATION     1


 AVERAGE FORCE                      1.911E+07   TIME AVG. FORCE       6.389E+06
 ALL FORCE     RESIDUALS ARE ZERO
 LARGEST INCREMENT OF DISP.          2.99       AT NODE          4   DOF  1
 LARGEST CORRECTION TO DISP.       -6.406E-03   AT NODE          3   DOF  1
          THE FORCE     EQUILIBRIUM RESPONSE WAS LINEAR IN THIS INCREMENT

  MAXIMUM HALF-INCREMENT FORCE RESIDUAL IS    0.00     AND OCCURS AT NODE          0

 ITERATION SUMMARY FOR THE INCREMENT:   1 TOTAL ITERATIONS, OF WHICH
   0 ARE SEVERE DISCONTINUITY ITERATIONS AND  1 ARE EQUILIBRIUM ITERATIONS.

 TIME INCREMENT COMPLETED  0.500    ,  FRACTION OF STEP COMPLETED  0.500    
 STEP TIME COMPLETED        5.00    ,  TOTAL TIME COMPLETED         5.00    

     RESTART INFORMATION WRITTEN IN STEP   1  AFTER INCREMENT    10


  INCREMENT    11 STARTS. ATTEMPT NUMBER  1, TIME INCREMENT  0.500    

  NUMBER OF EQUATIONS =        21     NUMBER OF RHS =    1
  NUMBER OF FLOATING PT. OPERATIONS =  7.10E+02

  USING THE DIRECT SOLVER WITH  10 PROCESSORS

     CHECK POINT   START OF SOLVER    

     CHECK POINT  END OF SOLVER       

       ELAPSED USER TIME (SEC)      =  3.00000E-02
       ELAPSED SYSTEM TIME (SEC)    =  1.00000E-02
       ELAPSED TOTAL CPU TIME (SEC) =  4.00000E-02
       ELAPSED WALLCLOCK TIME (SEC) =          0

               CONVERGENCE CHECKS FOR EQUILIBRIUM ITERATION     1


 AVERAGE FORCE                      2.426E+07   TIME AVG. FORCE       8.013E+06
 ALL FORCE     RESIDUALS ARE ZERO
 LARGEST INCREMENT OF DISP.          3.37       AT NODE          4   DOF  1
 LARGEST CORRECTION TO DISP.       -6.537E-03   AT NODE          4   DOF  1
          THE FORCE     EQUILIBRIUM RESPONSE WAS LINEAR IN THIS INCREMENT

  MAXIMUM HALF-INCREMENT FORCE RESIDUAL IS    0.00     AND OCCURS AT NODE          0

 ITERATION SUMMARY FOR THE INCREMENT:   1 TOTAL ITERATIONS, OF WHICH
   0 ARE SEVERE DISCONTINUITY ITERATIONS AND  1 ARE EQUILIBRIUM ITERATIONS.

 TIME INCREMENT COMPLETED  0.500    ,  FRACTION OF STEP COMPLETED  0.550    
 STEP TIME COMPLETED        5.50    ,  TOTAL TIME COMPLETED         5.50    

     RESTART INFORMATION WRITTEN IN STEP   1  AFTER INCREMENT    11


  INCREMENT    12 STARTS. ATTEMPT NUMBER  1, TIME INCREMENT  0.500    

  NUMBER OF EQUATIONS =        21     NUMBER OF RHS =    1
  NUMBER OF FLOATING PT. OPERATIONS =  7.10E+02

  USING THE DIRECT SOLVER WITH  10 PROCESSORS

     CHECK POINT   START OF SOLVER    

     CHECK POINT  END OF SOLVER       

       ELAPSED USER TIME (SEC)      =  3.00000E-02
       ELAPSED SYSTEM TIME (SEC)    =  1.00000E-02
       ELAPSED TOTAL CPU TIME (SEC) =  4.00000E-02
       ELAPSED WALLCLOCK TIME (SEC) =          0

               CONVERGENCE CHECKS FOR EQUILIBRIUM ITERATION     1


 AVERAGE FORCE                      2.997E+07   TIME AVG. FORCE       9.843E+06
 ALL FORCE     RESIDUALS ARE ZERO
 LARGEST INCREMENT OF DISP.          3.72       AT NODE          4   DOF  1
 LARGEST CORRECTION TO DISP.       -9.524E-03   AT NODE          4   DOF  1
          THE FORCE     EQUILIBRIUM RESPONSE WAS LINEAR IN THIS INCREMENT

  MAXIMUM HALF-INCREMENT FORCE RESIDUAL IS    0.00     AND OCCURS AT NODE          0

 ITERATION SUMMARY FOR THE INCREMENT:   1 TOTAL ITERATIONS, OF WHICH
   0 ARE SEVERE DISCONTINUITY ITERATIONS AND  1 ARE EQUILIBRIUM ITERATIONS.

 TIME INCREMENT COMPLETED  0.500    ,  FRACTION OF STEP COMPLETED  0.600    
 STEP TIME COMPLETED        6.00    ,  TOTAL TIME COMPLETED         6.00    

     RESTART INFORMATION WRITTEN IN STEP   1  AFTER INCREMENT    12


  INCREMENT    13 STARTS. ATTEMPT NUMBER  1, TIME INCREMENT  0.500    

  NUMBER OF EQUATIONS =        21     NUMBER OF RHS =    1
  NUMBER OF FLOATING PT. OPERATIONS =  7.10E+02

  USING THE DIRECT SOLVER WITH  10 PROCESSORS

     CHECK POINT   START OF SOLVER    

     CHECK POINT  END OF SOLVER       

       ELAPSED USER TIME (SEC)      =  2.00000E-02
       ELAPSED SYSTEM TIME (SEC)    =   0.0000    
       ELAPSED TOTAL CPU TIME (SEC) =  2.00000E-02
       ELAPSED WALLCLOCK TIME (SEC) =          0

               CONVERGENCE CHECKS FOR EQUILIBRIUM ITERATION     1


 AVERAGE FORCE                      3.618E+07   TIME AVG. FORCE       1.187E+07
 ALL FORCE     RESIDUALS ARE ZERO
 LARGEST INCREMENT OF DISP.          4.03       AT NODE          7   DOF  1
 LARGEST CORRECTION TO DISP.       -1.228E-02   AT NODE          4   DOF  1
          THE FORCE     EQUILIBRIUM RESPONSE WAS LINEAR IN THIS INCREMENT

  MAXIMUM HALF-INCREMENT FORCE RESIDUAL IS    0.00     AND OCCURS AT NODE          0

 ITERATION SUMMARY FOR THE INCREMENT:   1 TOTAL ITERATIONS, OF WHICH
   0 ARE SEVERE DISCONTINUITY ITERATIONS AND  1 ARE EQUILIBRIUM ITERATIONS.

 TIME INCREMENT COMPLETED  0.500    ,  FRACTION OF STEP COMPLETED  0.650    
 STEP TIME COMPLETED        6.50    ,  TOTAL TIME COMPLETED         6.50    

     RESTART INFORMATION WRITTEN IN STEP   1  AFTER INCREMENT    13


  INCREMENT    14 STARTS. ATTEMPT NUMBER  1, TIME INCREMENT  0.500    

  NUMBER OF EQUATIONS =        21     NUMBER OF RHS =    1
  NUMBER OF FLOATING PT. OPERATIONS =  7.10E+02

  USING THE DIRECT SOLVER WITH  10 PROCESSORS

     CHECK POINT   START OF SOLVER    

     CHECK POINT  END OF SOLVER       

       ELAPSED USER TIME (SEC)      =  3.00000E-02
       ELAPSED SYSTEM TIME (SEC)    =   0.0000    
       ELAPSED TOTAL CPU TIME (SEC) =  3.00000E-02
       ELAPSED WALLCLOCK TIME (SEC) =          0

               CONVERGENCE CHECKS FOR EQUILIBRIUM ITERATION     1


 AVERAGE FORCE                      4.284E+07   TIME AVG. FORCE       1.408E+07
 ALL FORCE     RESIDUALS ARE ZERO
 LARGEST INCREMENT OF DISP.          4.31       AT NODE          7   DOF  1
 LARGEST CORRECTION TO DISP.       -1.473E-02   AT NODE          4   DOF  1
          THE FORCE     EQUILIBRIUM RESPONSE WAS LINEAR IN THIS INCREMENT

  MAXIMUM HALF-INCREMENT FORCE RESIDUAL IS    0.00     AND OCCURS AT NODE          0

 ITERATION SUMMARY FOR THE INCREMENT:   1 TOTAL ITERATIONS, OF WHICH
   0 ARE SEVERE DISCONTINUITY ITERATIONS AND  1 ARE EQUILIBRIUM ITERATIONS.

 TIME INCREMENT COMPLETED  0.500    ,  FRACTION OF STEP COMPLETED  0.700    
 STEP TIME COMPLETED        7.00    ,  TOTAL TIME COMPLETED         7.00    

     RESTART INFORMATION WRITTEN IN STEP   1  AFTER INCREMENT    14


  INCREMENT    15 STARTS. ATTEMPT NUMBER  1, TIME INCREMENT  0.500    

  NUMBER OF EQUATIONS =        21     NUMBER OF RHS =    1
  NUMBER OF FLOATING PT. OPERATIONS =  7.10E+02

  USING THE DIRECT SOLVER WITH  10 PROCESSORS

     CHECK POINT   START OF SOLVER    

     CHECK POINT  END OF SOLVER       

       ELAPSED USER TIME (SEC)      =  2.00000E-02
       ELAPSED SYSTEM TIME (SEC)    =  1.00000E-02
       ELAPSED TOTAL CPU TIME (SEC) =  3.00000E-02
       ELAPSED WALLCLOCK TIME (SEC) =          0

               CONVERGENCE CHECKS FOR EQUILIBRIUM ITERATION     1


 AVERAGE FORCE                      4.986E+07   TIME AVG. FORCE       1.647E+07
 ALL FORCE     RESIDUALS ARE ZERO
 LARGEST INCREMENT OF DISP.          4.54       AT NODE          7   DOF  1
 LARGEST CORRECTION TO DISP.       -1.682E-02   AT NODE          4   DOF  1
          THE FORCE     EQUILIBRIUM RESPONSE WAS LINEAR IN THIS INCREMENT

  MAXIMUM HALF-INCREMENT FORCE RESIDUAL IS    0.00     AND OCCURS AT NODE          0

 ITERATION SUMMARY FOR THE INCREMENT:   1 TOTAL ITERATIONS, OF WHICH
   0 ARE SEVERE DISCONTINUITY ITERATIONS AND  1 ARE EQUILIBRIUM ITERATIONS.

 TIME INCREMENT COMPLETED  0.500    ,  FRACTION OF STEP COMPLETED  0.750    
 STEP TIME COMPLETED        7.50    ,  TOTAL TIME COMPLETED         7.50    

     RESTART INFORMATION WRITTEN IN STEP   1  AFTER INCREMENT    15


  INCREMENT    16 STARTS. ATTEMPT NUMBER  1, TIME INCREMENT  0.500    

  NUMBER OF EQUATIONS =        21     NUMBER OF RHS =    1
  NUMBER OF FLOATING PT. OPERATIONS =  7.10E+02

  USING THE DIRECT SOLVER WITH  10 PROCESSORS

     CHECK POINT   START OF SOLVER    

     CHECK POINT  END OF SOLVER       

       ELAPSED USER TIME (SEC)      =   0.0000    
       ELAPSED SYSTEM TIME (SEC)    =  2.00000E-02
       ELAPSED TOTAL CPU TIME (SEC) =  2.00000E-02
       ELAPSED WALLCLOCK TIME (SEC) =          0

               CONVERGENCE CHECKS FOR EQUILIBRIUM ITERATION     1


 AVERAGE FORCE                      5.717E+07   TIME AVG. FORCE       1.901E+07
 ALL FORCE     RESIDUALS ARE ZERO
 LARGEST INCREMENT OF DISP.          4.72       AT NODE          7   DOF  1
 LARGEST CORRECTION TO DISP.       -1.849E-02   AT NODE          4   DOF  1
          THE FORCE     EQUILIBRIUM RESPONSE WAS LINEAR IN THIS INCREMENT

  MAXIMUM HALF-INCREMENT FORCE RESIDUAL IS    0.00     AND OCCURS AT NODE          0

 ITERATION SUMMARY FOR THE INCREMENT:   1 TOTAL ITERATIONS, OF WHICH
   0 ARE SEVERE DISCONTINUITY ITERATIONS AND  1 ARE EQUILIBRIUM ITERATIONS.

 TIME INCREMENT COMPLETED  0.500    ,  FRACTION OF STEP COMPLETED  0.800    
 STEP TIME COMPLETED        8.00    ,  TOTAL TIME COMPLETED         8.00    

     RESTART INFORMATION WRITTEN IN STEP   1  AFTER INCREMENT    16


  INCREMENT    17 STARTS. ATTEMPT NUMBER  1, TIME INCREMENT  0.500    

  NUMBER OF EQUATIONS =        21     NUMBER OF RHS =    1
  NUMBER OF FLOATING PT. OPERATIONS =  7.10E+02

  USING THE DIRECT SOLVER WITH  10 PROCESSORS

     CHECK POINT   START OF SOLVER    

     CHECK POINT  END OF SOLVER       

       ELAPSED USER TIME (SEC)      =  3.00000E-02
       ELAPSED SYSTEM TIME (SEC)    =   0.0000    
       ELAPSED TOTAL CPU TIME (SEC) =  3.00000E-02
       ELAPSED WALLCLOCK TIME (SEC) =          0

               CONVERGENCE CHECKS FOR EQUILIBRIUM ITERATION     1


 AVERAGE FORCE                      6.466E+07   TIME AVG. FORCE       2.170E+07
 ALL FORCE     RESIDUALS ARE ZERO
 LARGEST INCREMENT OF DISP.          4.84       AT NODE          7   DOF  1
 LARGEST CORRECTION TO DISP.       -1.971E-02   AT NODE          4   DOF  1
          THE FORCE     EQUILIBRIUM RESPONSE WAS LINEAR IN THIS INCREMENT

  MAXIMUM HALF-INCREMENT FORCE RESIDUAL IS    0.00     AND OCCURS AT NODE          0

 ITERATION SUMMARY FOR THE INCREMENT:   1 TOTAL ITERATIONS, OF WHICH
   0 ARE SEVERE DISCONTINUITY ITERATIONS AND  1 ARE EQUILIBRIUM ITERATIONS.

 TIME INCREMENT COMPLETED  0.500    ,  FRACTION OF STEP COMPLETED  0.850    
 STEP TIME COMPLETED        8.50    ,  TOTAL TIME COMPLETED         8.50    

     RESTART INFORMATION WRITTEN IN STEP   1  AFTER INCREMENT    17


  INCREMENT    18 STARTS. ATTEMPT NUMBER  1, TIME INCREMENT  0.500    

  NUMBER OF EQUATIONS =        21     NUMBER OF RHS =    1
  NUMBER OF FLOATING PT. OPERATIONS =  7.10E+02

  USING THE DIRECT SOLVER WITH  10 PROCESSORS

     CHECK POINT   START OF SOLVER    

     CHECK POINT  END OF SOLVER       

       ELAPSED USER TIME (SEC)      =  3.00000E-02
       ELAPSED SYSTEM TIME (SEC)    =   0.0000    
       ELAPSED TOTAL CPU TIME (SEC) =  3.00000E-02
       ELAPSED WALLCLOCK TIME (SEC) =          0

               CONVERGENCE CHECKS FOR EQUILIBRIUM ITERATION     1


 AVERAGE FORCE                      7.226E+07   TIME AVG. FORCE       2.450E+07
 ALL FORCE     RESIDUALS ARE ZERO
 LARGEST INCREMENT OF DISP.          4.89       AT NODE          7   DOF  1
 LARGEST CORRECTION TO DISP.       -2.044E-02   AT NODE          4   DOF  1
          THE FORCE     EQUILIBRIUM RESPONSE WAS LINEAR IN THIS INCREMENT

  MAXIMUM HALF-INCREMENT FORCE RESIDUAL IS    0.00     AND OCCURS AT NODE          0

 ITERATION SUMMARY FOR THE INCREMENT:   1 TOTAL ITERATIONS, OF WHICH
   0 ARE SEVERE DISCONTINUITY ITERATIONS AND  1 ARE EQUILIBRIUM ITERATIONS.

 TIME INCREMENT COMPLETED  0.500    ,  FRACTION OF STEP COMPLETED  0.900    
 STEP TIME COMPLETED        9.00    ,  TOTAL TIME COMPLETED         9.00    

     RESTART INFORMATION WRITTEN IN STEP   1  AFTER INCREMENT    18


  INCREMENT    19 STARTS. ATTEMPT NUMBER  1, TIME INCREMENT  0.500    

  NUMBER OF EQUATIONS =        21     NUMBER OF RHS =    1
  NUMBER OF FLOATING PT. OPERATIONS =  7.10E+02

  USING THE DIRECT SOLVER WITH  10 PROCESSORS

     CHECK POINT   START OF SOLVER    

     CHECK POINT  END OF SOLVER       

       ELAPSED USER TIME (SEC)      =  2.00000E-02
       ELAPSED SYSTEM TIME (SEC)    =  1.00000E-02
       ELAPSED TOTAL CPU TIME (SEC) =  3.00000E-02
       ELAPSED WALLCLOCK TIME (SEC) =          0

               CONVERGENCE CHECKS FOR EQUILIBRIUM ITERATION     1


 AVERAGE FORCE                      8.010E+07   TIME AVG. FORCE       2.743E+07
 ALL FORCE     RESIDUALS ARE ZERO
 LARGEST INCREMENT OF DISP.          4.89       AT NODE          7   DOF  1
 LARGEST CORRECTION TO DISP.       -2.067E-02   AT NODE          4   DOF  1
          THE FORCE     EQUILIBRIUM RESPONSE WAS LINEAR IN THIS INCREMENT

  MAXIMUM HALF-INCREMENT FORCE RESIDUAL IS    0.00     AND OCCURS AT NODE          0

 ITERATION SUMMARY FOR THE INCREMENT:   1 TOTAL ITERATIONS, OF WHICH
   0 ARE SEVERE DISCONTINUITY ITERATIONS AND  1 ARE EQUILIBRIUM ITERATIONS.

 TIME INCREMENT COMPLETED  0.500    ,  FRACTION OF STEP COMPLETED  0.950    
 STEP TIME COMPLETED        9.50    ,  TOTAL TIME COMPLETED         9.50    

     RESTART INFORMATION WRITTEN IN STEP   1  AFTER INCREMENT    19


  INCREMENT    20 STARTS. ATTEMPT NUMBER  1, TIME INCREMENT  0.500    

  NUMBER OF EQUATIONS =        21     NUMBER OF RHS =    1
  NUMBER OF FLOATING PT. OPERATIONS =  7.10E+02

  USING THE DIRECT SOLVER WITH  10 PROCESSORS

     CHECK POINT   START OF SOLVER    

     CHECK POINT  END OF SOLVER       

       ELAPSED USER TIME (SEC)      =  1.00000E-02
       ELAPSED SYSTEM TIME (SEC)    =   0.0000    
       ELAPSED TOTAL CPU TIME (SEC) =  1.00000E-02
       ELAPSED WALLCLOCK TIME (SEC) =          0

               CONVERGENCE CHECKS FOR EQUILIBRIUM ITERATION     1


 AVERAGE FORCE                      8.782E+07   TIME AVG. FORCE       3.045E+07
 ALL FORCE     RESIDUALS ARE ZERO
 LARGEST INCREMENT OF DISP.          4.83       AT NODE          7   DOF  1
 LARGEST CORRECTION TO DISP.       -2.039E-02   AT NODE          4   DOF  1
          THE FORCE     EQUILIBRIUM RESPONSE WAS LINEAR IN THIS INCREMENT

  MAXIMUM HALF-INCREMENT FORCE RESIDUAL IS    0.00     AND OCCURS AT NODE          0

 ITERATION SUMMARY FOR THE INCREMENT:   1 TOTAL ITERATIONS, OF WHICH
   0 ARE SEVERE DISCONTINUITY ITERATIONS AND  1 ARE EQUILIBRIUM ITERATIONS.

 TIME INCREMENT COMPLETED  0.500    ,  FRACTION OF STEP COMPLETED   1.00    
 STEP TIME COMPLETED        10.0    ,  TOTAL TIME COMPLETED         10.0    

     RESTART INFORMATION WRITTEN IN STEP   1  AFTER INCREMENT    20
1

   Abaqus 2020                                  Date 05-Jan-2023   Time 15:56:09
   For use by Supplied by Team-SolidSQUAD under license from Dassault Systemes or its subsidiary.

  BASIC VERIFICATION OF USER SUBROUTINE DISP                                     
  CONTINUE ANALYSIS IN ADDITIONAL STEP                                           
 STEP    2     INCREMENT     1     STEP TIME    0.00    


                        S T E P       2     D Y N A M I C   A N A L Y S I S - I M P L I C I T  I N T E G R A T I O N


           CONTINUE ANALYSIS IN ADDITIONAL STEP                                           

          DYNAMIC APPLICATION PACKED SCHEME IS                 TRANSIENT FIDELITY  
          HILBER-HUGHES-TAYLOR (HHT) TIME INTEGRATOR IS USED

     AUTOMATIC TIME CONTROL WITH -
          A SUGGESTED INITIAL TIME INCREMENT OF                0.500    
          AND A TOTAL TIME PERIOD OF                            2.00    
          THE MINIMUM TIME INCREMENT ALLOWED IS                2.000E-05
          THE MAXIMUM TIME INCREMENT ALLOWED IS                0.500    
          SCALE FACTOR ON TIME AVERAGE FORCE FOR HALF-
           -INCREMENT RESIDUAL COMPUTATIONS IS                 1.000E+03

          HILBER-HUGHES-TAYLOR METHOD PARAMETERS:  ALPHA   IS  -5.000000E-02
                                                   BETA    IS   0.275625    
                                                   GAMMA   IS   0.550000    
          SINGULAR MASS TREATMENT TYPE IS                     ERROR
          CONSERVATIVE TIME INCREMENTATION IS USED
          STEP AMPLITUDE IS                                    STEP

 CONVERGENCE TOLERANCE PARAMETERS FOR FORCE    
     CRITERION FOR RESIDUAL FORCE     FOR A NONLINEAR PROBLEM          5.000E-03
     CRITERION FOR DISP.    CORRECTION IN A NONLINEAR PROBLEM          1.000E-02
     INIT. VALUE OF TIME AVG. FORCE     IS TIME AVG. FORCE     IN PREVIOUS STEP
     AVERAGE FORCE     IS TIME AVERAGE FORCE    
     ALTERNATE CRIT. FOR RESIDUAL FORCE     FOR A NONLINEAR PROBLEM    2.000E-02
     CRITERION FOR ZERO FORCE     RELATIVE TO TIME AVRG. FORCE         1.000E-05
     CRITERION FOR RESIDUAL FORCE     WHEN THERE IS ZERO FLUX          1.000E-05
     CRITERION FOR DISP.    CORRECTION WHEN THERE IS ZERO FLUX         1.000E-03
     CRITERION FOR RESIDUAL FORCE     FOR A LINEAR INCREMENT           1.000E-08
     FIELD CONVERSION RATIO                                             1.00    
     CRITERION FOR ZERO FORCE     REL. TO TIME AVRG. MAX. FORCE        1.000E-05
     CRITERION FOR ZERO DISP.    RELATIVE TO CHARACTERISTIC LENGTH     1.000E-08

     VOLUMETRIC STRAIN COMPATIBILITY TOLERANCE FOR HYBRID SOLIDS       1.000E-05
     AXIAL STRAIN COMPATIBILITY TOLERANCE FOR HYBRID BEAMS             1.000E-05
     TRANS. SHEAR STRAIN COMPATIBILITY TOLERANCE FOR HYBRID BEAMS      1.000E-05
     SOFT CONTACT CONSTRAINT COMPATIBILITY TOLERANCE FOR P>P0          5.000E-03
     SOFT CONTACT CONSTRAINT COMPATIBILITY TOLERANCE FOR P=0.0         0.100    
     CONTACT FORCE ERROR TOLERANCE FOR CONVERT SDI=YES                 1.00    
     DISPLACEMENT COMPATIBILITY TOLERANCE FOR DCOUP ELEMENTS           1.000E-05
     ROTATION COMPATIBILITY TOLERANCE FOR DCOUP ELEMENTS               1.000E-05

 EQUILIBRIUM WILL BE CHECKED FOR SEVERE DISCONTINUITY ITERATIONS

 TIME INCREMENTATION CONTROL PARAMETERS:
     FIRST EQUILIBRIUM ITERATION FOR CONSECUTIVE DIVERGENCE CHECK              4
     EQUILIBRIUM ITERATION AT WHICH LOG. CONVERGENCE RATE CHECK BEGINS         8
     EQUILIBRIUM ITERATION AFTER WHICH ALTERNATE RESIDUAL IS USED              9
     MAXIMUM EQUILIBRIUM ITERATIONS ALLOWED                                   16
     EQUILIBRIUM ITERATION COUNT FOR CUT-BACK IN NEXT INCREMENT               10
     MAXIMUM EQUILIB. ITERS IN TWO INCREMENTS FOR TIME INCREMENT INCREASE      4
     MAXIMUM ITERATIONS FOR SEVERE DISCONTINUITIES                            50
     MAXIMUM ATTEMPTS ALLOWED IN AN INCREMENT                                  5
     MAXIMUM DISCON. ITERS IN TWO INCREMENTS FOR TIME INCREMENT INCREASE      50
     MAXIMUM CONTACT AUGMENTATIONS FOR *SURFACE BEHAVIOR,AUGMENTED LAGRANGE   50
     CONSECUTIVE INCS MEETING TIME INTEG. TOL. FOR TIME INC. INCREASE          3
     CUT-BACK FACTOR AFTER DIVERGENCE                                 0.2500    
     CUT-BACK FACTOR FOR TOO SLOW CONVERGENCE                         0.5000    
     CUT-BACK FACTOR AFTER TOO MANY EQUILIBRIUM ITERATIONS            0.7500    
     CUT-BACK FACTOR AFTER TOO MANY SEVERE DISCONTINUITY ITERATIONS   0.2500    
     CUT-BACK FACTOR AFTER PROBLEMS IN ELEMENT ASSEMBLY               0.2500    
     INCREASE FACTOR AFTER TWO INCREMENTS THAT CONVERGE QUICKLY        1.500    
     MAX. TIME INCREMENT INCREASE FACTOR ALLOWED                       1.500    
     MAX. TIME INCREMENT INCREASE FACTOR ALLOWED (DYNAMICS)            1.250    
     MAX. TIME INCREMENT INCREASE FACTOR ALLOWED (DIFFUSION)           2.000    
     MINIMUM TIME INCREMENT RATIO FOR EXTRAPOLATION TO OCCUR          0.1000    
     CUT-BACK FACTOR WHEN TIME INTEGRATION ACCURACY TOL. EXCEEDED     0.8500    
     MAX. RATIO OF TIME INTEG. MEASURE TO TOL. FOR TIME INC. INCREASE 0.7500    
     INCREASE FACTOR FOR TIME INCREMENT WHEN POSSIBLE                 0.8000    
     MIN. TIME INC. INCREASE FACTOR IN LINEAR TRANSIENT PROBLEMS      0.9500    
     MAX. RATIO OF TIME INCREMENT TO STABILITY LIMIT                   1.000    
     FRACTION OF STABILITY LIMIT FOR NEW TIME INCREMENT               0.9500    
     TIME INCREMENT INCREASE FACTOR BEFORE A TIME POINT                1.000    
     GLOBAL STABILIZATION CONTROL IS NOT USED

          PRINT OF INCREMENT NUMBER, TIME, ETC., EVERY    1  INCREMENTS

     RESTART FILE WILL BE WRITTEN EVERY     1  INCREMENTS

     THE MAXIMUM NUMBER OF INCREMENTS IN THIS STEP IS                     100

     VELOCITY-BASED PARABOLIC EXTRAPOLATION WILL BE USED

     CHARACTERISTIC ELEMENT LENGTH      1.00    

     DETAILS REGARDING ACTUAL SOLUTION WAVEFRONT REQUESTED

     DETAILED OUTPUT OF DIAGNOSTICS TO DATABASE REQUESTED

     PRINT OF INCREMENT NUMBER, TIME, ETC., TO THE MESSAGE FILE EVERY     1  INCREMENTS

     ELEMENT OPERATIONS WILL BE CARRIED OUT IN PARALLEL USING  10 PROCESSORS

     COLLECTING STEP CONSTRAINT INFORMATION FOR OVERCONSTRAINT CHECKS

  NUMBER OF EQUATIONS =        21     NUMBER OF RHS =    1
  NUMBER OF FLOATING PT. OPERATIONS =  7.10E+02

  USING THE DIRECT SOLVER WITH  10 PROCESSORS

     CHECK POINT   START OF SOLVER    

     CHECK POINT  END OF SOLVER       

       ELAPSED USER TIME (SEC)      =  4.00000E-02
       ELAPSED SYSTEM TIME (SEC)    =  1.00000E-02
       ELAPSED TOTAL CPU TIME (SEC) =  5.00000E-02
       ELAPSED WALLCLOCK TIME (SEC) =          0

  NUMBER OF EQUATIONS =        21     NUMBER OF RHS =    1
  NUMBER OF FLOATING PT. OPERATIONS =  7.10E+02

  USING THE DIRECT SOLVER WITH  10 PROCESSORS

     CHECK POINT   START OF SOLVER    

     CHECK POINT  END OF SOLVER       

       ELAPSED USER TIME (SEC)      =  2.00000E-02
       ELAPSED SYSTEM TIME (SEC)    =  2.00000E-02
       ELAPSED TOTAL CPU TIME (SEC) =  4.00000E-02
       ELAPSED WALLCLOCK TIME (SEC) =          0


  INCREMENT     1 STARTS. ATTEMPT NUMBER  1, TIME INCREMENT  0.500    
 
     INITIAL ELEMENT LOAD BALANCE
            PROCESS    1   THREAD     NUMBER OF ELEMENTS
                              1            1
                              2            0
                              3            1
                              4            1
                              5            1
                              6            0
                              7            1
                              8            0
                              9            1
                             10            0

  NUMBER OF EQUATIONS =        21     NUMBER OF RHS =    1
  NUMBER OF FLOATING PT. OPERATIONS =  7.10E+02

  USING THE DIRECT SOLVER WITH  10 PROCESSORS

     CHECK POINT   START OF SOLVER    

     CHECK POINT  END OF SOLVER       

       ELAPSED USER TIME (SEC)      =   0.0000    
       ELAPSED SYSTEM TIME (SEC)    =  2.00000E-02
       ELAPSED TOTAL CPU TIME (SEC) =  2.00000E-02
       ELAPSED WALLCLOCK TIME (SEC) =          0

               CONVERGENCE CHECKS FOR EQUILIBRIUM ITERATION     1


 AVERAGE FORCE                      9.533E+07   TIME AVG. FORCE       9.533E+07
 ALL FORCE     RESIDUALS ARE ZERO
 LARGEST INCREMENT OF DISP.          4.70       AT NODE          7   DOF  1
 LARGEST CORRECTION TO DISP.       -7.218E-02   AT NODE          4   DOF  1
          THE FORCE     EQUILIBRIUM RESPONSE WAS LINEAR IN THIS INCREMENT

  MAXIMUM HALF-INCREMENT FORCE RESIDUAL IS    0.00     AND OCCURS AT NODE          0

 ITERATION SUMMARY FOR THE INCREMENT:   1 TOTAL ITERATIONS, OF WHICH
   0 ARE SEVERE DISCONTINUITY ITERATIONS AND  1 ARE EQUILIBRIUM ITERATIONS.

 TIME INCREMENT COMPLETED  0.500    ,  FRACTION OF STEP COMPLETED  0.250    
 STEP TIME COMPLETED       0.500    ,  TOTAL TIME COMPLETED         10.5    

     RESTART INFORMATION WRITTEN IN STEP   2  AFTER INCREMENT     1


  INCREMENT     2 STARTS. ATTEMPT NUMBER  1, TIME INCREMENT  0.500    

  NUMBER OF EQUATIONS =        21     NUMBER OF RHS =    1
  NUMBER OF FLOATING PT. OPERATIONS =  7.10E+02

  USING THE DIRECT SOLVER WITH  10 PROCESSORS

     CHECK POINT   START OF SOLVER    

     CHECK POINT  END OF SOLVER       

       ELAPSED USER TIME (SEC)      =  1.00000E-02
       ELAPSED SYSTEM TIME (SEC)    =  3.00000E-02
       ELAPSED TOTAL CPU TIME (SEC) =  4.00000E-02
       ELAPSED WALLCLOCK TIME (SEC) =          0

               CONVERGENCE CHECKS FOR EQUILIBRIUM ITERATION     1


 AVERAGE FORCE                      1.025E+08   TIME AVG. FORCE       9.893E+07
 ALL FORCE     RESIDUALS ARE ZERO
 LARGEST INCREMENT OF DISP.          4.52       AT NODE          7   DOF  1
 LARGEST CORRECTION TO DISP.       -1.835E-02   AT NODE          7   DOF  1
          THE FORCE     EQUILIBRIUM RESPONSE WAS LINEAR IN THIS INCREMENT

  MAXIMUM HALF-INCREMENT FORCE RESIDUAL IS    0.00     AND OCCURS AT NODE          0

 ITERATION SUMMARY FOR THE INCREMENT:   1 TOTAL ITERATIONS, OF WHICH
   0 ARE SEVERE DISCONTINUITY ITERATIONS AND  1 ARE EQUILIBRIUM ITERATIONS.

 TIME INCREMENT COMPLETED  0.500    ,  FRACTION OF STEP COMPLETED  0.500    
 STEP TIME COMPLETED        1.00    ,  TOTAL TIME COMPLETED         11.0    

     RESTART INFORMATION WRITTEN IN STEP   2  AFTER INCREMENT     2


  INCREMENT     3 STARTS. ATTEMPT NUMBER  1, TIME INCREMENT  0.500    

  NUMBER OF EQUATIONS =        21     NUMBER OF RHS =    1
  NUMBER OF FLOATING PT. OPERATIONS =  7.10E+02

  USING THE DIRECT SOLVER WITH  10 PROCESSORS

     CHECK POINT   START OF SOLVER    

     CHECK POINT  END OF SOLVER       

       ELAPSED USER TIME (SEC)      =  2.00000E-02
       ELAPSED SYSTEM TIME (SEC)    =   0.0000    
       ELAPSED TOTAL CPU TIME (SEC) =  2.00000E-02
       ELAPSED WALLCLOCK TIME (SEC) =          0

               CONVERGENCE CHECKS FOR EQUILIBRIUM ITERATION     1


 AVERAGE FORCE                      1.093E+08   TIME AVG. FORCE       1.024E+08
 ALL FORCE     RESIDUALS ARE ZERO
 LARGEST INCREMENT OF DISP.          4.29       AT NODE          7   DOF  1
 LARGEST CORRECTION TO DISP.       -1.663E-02   AT NODE          7   DOF  1
          THE FORCE     EQUILIBRIUM RESPONSE WAS LINEAR IN THIS INCREMENT

  MAXIMUM HALF-INCREMENT FORCE RESIDUAL IS    0.00     AND OCCURS AT NODE          0

 ITERATION SUMMARY FOR THE INCREMENT:   1 TOTAL ITERATIONS, OF WHICH
   0 ARE SEVERE DISCONTINUITY ITERATIONS AND  1 ARE EQUILIBRIUM ITERATIONS.

 TIME INCREMENT COMPLETED  0.500    ,  FRACTION OF STEP COMPLETED  0.750    
 STEP TIME COMPLETED        1.50    ,  TOTAL TIME COMPLETED         11.5    

     RESTART INFORMATION WRITTEN IN STEP   2  AFTER INCREMENT     3


  INCREMENT     4 STARTS. ATTEMPT NUMBER  1, TIME INCREMENT  0.500    

  NUMBER OF EQUATIONS =        21     NUMBER OF RHS =    1
  NUMBER OF FLOATING PT. OPERATIONS =  7.10E+02

  USING THE DIRECT SOLVER WITH  10 PROCESSORS

     CHECK POINT   START OF SOLVER    

     CHECK POINT  END OF SOLVER       

       ELAPSED USER TIME (SEC)      =  1.00000E-02
       ELAPSED SYSTEM TIME (SEC)    =   0.0000    
       ELAPSED TOTAL CPU TIME (SEC) =  1.00000E-02
       ELAPSED WALLCLOCK TIME (SEC) =          0

               CONVERGENCE CHECKS FOR EQUILIBRIUM ITERATION     1


 AVERAGE FORCE                      1.157E+08   TIME AVG. FORCE       1.057E+08
 ALL FORCE     RESIDUALS ARE ZERO
 LARGEST INCREMENT OF DISP.          4.01       AT NODE          7   DOF  1
 LARGEST CORRECTION TO DISP.       -1.451E-02   AT NODE          7   DOF  1
          THE FORCE     EQUILIBRIUM RESPONSE WAS LINEAR IN THIS INCREMENT

  MAXIMUM HALF-INCREMENT FORCE RESIDUAL IS    0.00     AND OCCURS AT NODE          0

 ITERATION SUMMARY FOR THE INCREMENT:   1 TOTAL ITERATIONS, OF WHICH
   0 ARE SEVERE DISCONTINUITY ITERATIONS AND  1 ARE EQUILIBRIUM ITERATIONS.

 TIME INCREMENT COMPLETED  0.500    ,  FRACTION OF STEP COMPLETED   1.00    
 STEP TIME COMPLETED        2.00    ,  TOTAL TIME COMPLETED         12.0    

     RESTART INFORMATION WRITTEN IN STEP   2  AFTER INCREMENT     4


          THE ANALYSIS HAS BEEN COMPLETED



     ANALYSIS SUMMARY:
     TOTAL OF         24  INCREMENTS
                       0  CUTBACKS IN AUTOMATIC INCREMENTATION
                      24  ITERATIONS INCLUDING CONTACT ITERATIONS IF PRESENT
                      28  PASSES THROUGH THE EQUATION SOLVER OF WHICH 
                       8  INVOLVE MATRIX DECOMPOSITION, INCLUDING
                       4  DECOMPOSITION(S) OF THE MASS MATRIX
                       1  REORDERING OF EQUATIONS TO MINIMIZE WAVEFRONT
                       0  ADDITIONAL RESIDUAL EVALUATIONS FOR LINE SEARCHES
                       0  ADDITIONAL OPERATOR EVALUATIONS FOR LINE SEARCHES
                       1  WARNING MESSAGES DURING USER INPUT PROCESSING
                       0  WARNING MESSAGES DURING ANALYSIS
                       0  ANALYSIS WARNINGS ARE NUMERICAL PROBLEM MESSAGES
                       0  ANALYSIS WARNINGS ARE NEGATIVE EIGENVALUE MESSAGES
                       0  ERROR MESSAGES



     JOB TIME SUMMARY
       USER TIME (SEC)      =   1.7000    
       SYSTEM TIME (SEC)    =  0.87000    
       TOTAL CPU TIME (SEC) =   2.5700    
       WALLCLOCK TIME (SEC) =          1

---------- RUNTIME EXCEPTION HAS OCCURED ----------

ABAQUS/standard rank 0 terminated by signal 6 (Aborted)

